/*--------------------------------*- C++ -*----------------------------------*\
  =========                 |
  \\      /  F ield         | OpenFOAM: The Open Source CFD Toolbox
   \\    /   O peration     | Website:  https://openfoam.org
    \\  /    A nd           | Version:  7
     \\/     M anipulation  |
\*---------------------------------------------------------------------------*/
FoamFile
{
    version     2.0;
    format      ascii;
    class       dictionary;
    object      blockMeshDict;
}
// * * * * * * * * * * * * * * * * * * * * * * * * * * * * * * * * * * * * * //

convertToMeters 1;

vertices
(
    (0 0 0)
    (0.12 0 0)
    (0.12 0.12 0)
    (0 0.12 0)
    (0 0 0.24)
    (0.12 0 0.24)
    (0.12 0.12 0.24)
    (0 0.12 0.24)
);

blocks
(
    hex (0 1 2 3 4 5 6 7) (4 4 8) simpleGrading (1 1 1)
);

edges
(
);

boundary
(
    // movingWall
    // {
    //     type wall;
    //     faces
    //     (
    //         (3 7 6 2)
    //     );
    // }
    walls
    {
        type wall;
        faces
        (
            (3 7 6 2)
            (0 4 7 3)
            (2 6 5 1)
            (1 5 4 0)
        );
    }
    outlet
    {
        type patch;
        faces
        (
            (4 5 6 7)
        );
    }
    inlet
    {
        type patch;
        faces
        (
            (0 3 2 1)
        );
    }
    // frontAndBack
    // {
    //     type wall;
    //     faces
    //     (
    //         (0 3 2 1)
    //         (4 5 6 7)
    //     );
    // }
);

mergePatchPairs
(
);

// ************************************************************************* //
