/*--------------------------------*- C++ -*----------------------------------*\
| =========                 |                                                 |
| \\      /  F ield         | OpenFOAM: The Open Source CFD Toolbox           |
|  \\    /   O peration     | Version:  v1806                                 |
|   \\  /    A nd           | Web:      www.OpenFOAM.com                      |
|    \\/     M anipulation  |                                                 |
\*---------------------------------------------------------------------------*/
FoamFile
{
    version     2.0;
    format      ascii;
    class       dictionary;
    location    "system";
    object      fvSchemes;
}
// * * * * * * * * * * * * * * * * * * * * * * * * * * * * * * * * * * * * * //

ddtSchemes
{
    default         Euler;
}

gradSchemes
{
    default         Gauss linear;
}

divSchemes
{
    default         none;
    
    div(phi,U)      Gauss upwind;
    div(phid,p)     Gauss upwind;
    div(phi,K)      Gauss linear;
    div(phi,h)     Gauss upwind;
    div(phi,k)      Gauss upwind;
    div(phi,epsilon) Gauss upwind;
    div(U)          Gauss linear;
    div(((rho*nuEff)*dev2(T(grad(U))))) Gauss linear;
    div(phi,Yi_h)   Gauss upwind;
}

laplacianSchemes
{
    default         Gauss linear orthogonal;
    
    laplacian(DT,tempAlphacDiffScalar) Gauss linear corrected;
    laplacian(DT,tempApDiffScalar) Gauss linear corrected;
    laplacian(DT,tempEpDiffScalar) Gauss linear corrected;
    laplacian(DT,tempSigmapDiffScalar) Gauss linear corrected;
    laplacian(DT,tempSrhoDiffWorkField) Gauss linear corrected;
    laplacian(DT,tempSrhoRhoDiffWorkField) Gauss linear corrected;
    laplacian(DT,tempSYiDiffWorkField) Gauss linear corrected;
    laplacian(DT,tempShDiffWorkField) Gauss linear corrected;
    laplacian(DT,tempSUDiffWorkField) Gauss linear corrected;
}

interpolationSchemes
{
    default         linear;
}

snGradSchemes
{
    default         orthogonal;
}


// ************************************************************************* //
