/*--------------------------------*- C++ -*----------------------------------*\
  =========                 |
  \\      /  F ield         | OpenFOAM: The Open Source CFD Toolbox
   \\    /   O peration     | Website:  https://openfoam.org
    \\  /    A nd           | Version:  7
     \\/     M anipulation  |
\*---------------------------------------------------------------------------*/
FoamFile
{
    version     2.0;
    format      ascii;
    class       polyBoundaryMesh;
    location    "constant/polyMesh";
    object      boundary;
}
// * * * * * * * * * * * * * * * * * * * * * * * * * * * * * * * * * * * * * //

5
(
    topWall
    {
        type            wall;
        inGroups        List<word> 1(wall);
        nFaces          20;
        startFace       1735;
    }
    bottomWall
    {
        type            wall;
        inGroups        List<word> 1(wall);
        nFaces          20;
        startFace       1755;
    }
    sideWallL
    {
        type            symmetry;
        inGroups        List<word> 1(symmetry);
        nFaces          45;
        startFace       1775;
    }
    sideWallR
    {
        type            wall;
        inGroups        List<word> 1(wall);
        nFaces          45;
        startFace       1820;
    }
    frontAndBack
    {
        type            empty;
        inGroups        List<word> 1(empty);
        nFaces          1800;
        startFace       1865;
    }
)

// ************************************************************************* //
