/*--------------------------------*- C++ -*----------------------------------*\
  =========                 |
  \\      /  F ield         | OpenFOAM: The Open Source CFD Toolbox
   \\    /   O peration     | Website:  https://openfoam.org
    \\  /    A nd           | Version:  7
     \\/     M anipulation  |
\*---------------------------------------------------------------------------*/
FoamFile
{
    version     2.0;
    format      ascii;
    class       scalarField;
    location    "2/lagrangian/coalCloud1";
    object      age;
}
// * * * * * * * * * * * * * * * * * * * * * * * * * * * * * * * * * * * * * //


2000
(
31.8830625
31.98025
31.9555625
31.96425
31.98725
32.0000625
31.993
31.849
31.8555625
31.8785625
31.9200625
31.86025
31.9180625
31.8620625
31.9010625
31.995
31.98125
31.9080625
31.91025
31.9620625
31.8040625
31.933
31.9240625
31.9360625
31.793
31.8610625
31.967
31.90825
31.9055625
31.8990625
31.9575625
31.8580625
31.9285625
31.9965625
31.9145625
31.827
31.8385625
31.9725625
31.8340625
31.85125
31.7990625
31.811
31.91125
31.86325
31.8485625
31.9935625
31.91
31.869
31.8365625
31.763
31.83625
31.8505625
31.93425
31.8395625
31.8235625
31.7830625
31.7800625
31.80825
31.8120625
31.7820625
31.7770625
31.81125
31.86625
31.8380625
31.8500625
31.8975625
31.7860625
31.9995625
31.837
31.758
31.80225
31.8075625
31.8285625
31.82925
31.78
31.74825
31.7915625
31.7945625
31.862
31.872
31.893
31.7650625
31.89725
31.96
31.9910625
31.973
31.9530625
31.93525
31.897
31.9915625
31.929
31.95025
31.9720625
31.95
31.96825
31.97625
31.9945625
31.9695625
31.906
31.94725
31.9665625
31.87825
31.9045625
31.8970625
31.9120625
31.9645625
31.9610625
31.9970625
31.97225
31.948
31.99
31.8845625
31.93025
31.87425
31.9515625
31.8390625
31.85525
31.8660625
31.91425
31.9560625
31.8915625
31.9735625
31.87225
31.8750625
31.93225
31.8200625
31.8550625
31.8180625
31.85
31.99825
31.868
31.8190625
31.773
31.842
31.8415625
31.848
31.84225
31.95225
31.8590625
31.9760625
31.9860625
31.998
31.9445625
31.94525
31.939
31.9060625
31.97125
31.9815625
31.9405625
31.9205625
31.9690625
31.9375625
31.97725
31.98325
31.9890625
31.885
31.972
31.8670625
31.9465625
31.9035625
31.8920625
31.977
31.99925
31.928
31.8470625
31.9905625
31.9475625
31.8805625
31.85725
31.908
31.8995625
31.918
31.86525
31.91725
31.9160625
31.853
31.94625
31.9005625
31.9130625
31.80425
32.0005625
31.8560625
31.83725
31.925
31.95725
31.9770625
31.79525
31.8720625
31.895
31.90525
31.7515625
31.808
31.8715625
31.79925
31.981
31.9470625
31.9960625
31.8760625
31.9225625
31.86225
31.98
31.8795625
31.9325625
31.8835625
31.85425
31.8860625
31.9540625
31.945
31.9235625
31.857
31.883
31.9440625
31.9980625
31.954
31.9685625
31.90125
31.9050625
31.9095625
31.87725
31.97325
31.8940625
31.951
31.7925625
31.8
31.8875625
31.8930625
31.7930625
31.8405625
31.91925
31.8315625
31.93725
31.82025
31.911
31.938
31.8820625
31.779
31.8085625
31.9295625
31.86925
31.8425625
31.8015625
31.823
31.7835625
31.7680625
31.79725
31.861
31.77325
31.7940625
31.813
31.82725
31.755
31.978
31.886
31.7760625
31.8210625
31.77
31.8935625
31.81425
31.766
31.7640625
31.7265625
31.8310625
31.79125
31.7920625
31.7545625
31.802
31.774
31.75625
31.92125
31.7415625
31.81725
31.7735625
31.9220625
31.94225
31.9590625
31.9615625
31.9140625
31.97
31.9805625
31.93325
31.996
31.9785625
31.97825
31.952
31.9595625
31.9845625
31.9565625
31.8640625
31.9705625
31.9930625
31.98925
31.9065625
31.89625
31.941
31.9975625
31.9765625
31.968
31.9885625
31.9740625
31.9990625
31.992
31.9015625
31.822
31.8345625
31.8585625
31.9535625
31.835
31.8885625
31.9985625
31.916
31.96925
31.8880625
31.9070625
31.8230625
31.867
31.8035625
31.8540625
31.7850625
31.9255625
31.7250625
31.84525
31.7955625
31.84625
31.7985625
31.8570625
31.7995625
31.8525625
31.75225
31.881
31.7720625
31.983
31.9775625
31.92425
31.90325
31.9150625
31.927
31.99225
31.8870625
31.926
31.943
31.9315625
31.96325
31.99725
31.9425625
31.9275625
31.9715625
31.92
31.88025
31.9510625
31.9305625
31.9650625
31.9485625
31.9365625
31.88925
31.909
31.965
31.949
31.9830625
32.001
31.81025
31.9520625
31.9
31.93825
31.80325
31.87625
31.95425
31.957
31.975
31.8910625
31.9100625
31.8965625
31.9755625
31.826
31.9795625
31.79225
31.87925
31.7970625
31.9380625
31.94425
31.962
31.84025
31.88225
31.8220625
31.8480625
31.7595625
31.8360625
31.8595625
31.92525
31.9025625
31.9330625
31.831
31.799
31.99525
31.8740625
31.8400625
31.9675625
31.89825
31.9920625
31.96225
31.9390625
31.902
31.92325
31.889
31.9345625
31.971
31.9370625
31.89925
31.8440625
31.9395625
31.994
31.924
31.9605625
31.8680625
31.9000625
31.854
31.852
31.8150625
31.8625625
31.8445625
31.969
31.833
31.8810625
31.8370625
31.947
31.83325
31.94125
31.86425
31.8060625
31.98225
31.9435625
31.97925
31.9640625
31.91225
31.82125
31.8125625
31.8955625
31.821
32
31.9335625
31.92025
31.8130625
31.8790625
31.864
31.8765625
31.9570625
31.8420625
31.8195625
31.9420625
31.847
31.96625
31.84325
31.82425
31.86725
31.855
31.8565625
31.82525
31.7690625
31.874
31.7730625
31.846
31.90425
31.7615625
31.7790625
31.8215625
31.77925
31.7880625
31.8240625
31.814
31.8945625
31.85625
31.836
31.9820625
31.91525
31.87325
31.9110625
31.9925625
31.9350625
31.9340625
31.956
31.9265625
31.94825
31.98825
31.9410625
31.891
31.9430625
31.964
31.9950625
31.884
31.8490625
31.98425
31.9880625
31.9870625
31.942
31.9630625
31.92925
31.9415625
31.9040625
31.9185625
31.759
31.961
31.9250625
31.7380625
31.9495625
31.966
31.8950625
31.88725
31.8465625
31.904
31.89225
31.8665625
31.903
31.89325
31.85025
31.876
31.8350625
31.77525
31.887
31.83525
31.85925
31.96525
31.844
31.988
31.99425
31.92225
31.946
31.991
31.959
31.963
31.9550625
31.9800625
31.9835625
31.91625
31.997
31.976
31.99125
31.9585625
31.8865625
31.9400625
31.9300625
31.9115625
31.9700625
31.937
31.896
31.96725
31.932
31.99625
31.9355625
31.9085625
31.95825
31.9075625
31.9020625
31.8645625
31.94025
31.9855625
31.90225
31.9655625
31.8755625
31.7875625
31.87525
31.8840625
31.78525
31.85825
31.8800625
31.7600625
31.97025
31.8850625
31.982
31.9170625
31.816
31.9210625
31.86125
31.9090625
31.78325
31.84725
31.8635625
31.81525
31.871
31.819
31.80725
31.8770625
31.99325
31.87025
31.9310625
31.9790625
31.8960625
31.9730625
31.97525
31.843
31.8710625
31.913
31.877
31.9750625
31.931
31.89025
31.9505625
31.9710625
31.89125
31.989
31.92625
31.95625
31.9810625
31.9525625
31.8515625
31.9460625
31.8070625
31.79625
31.915
31.98625
31.9625625
31.80025
31.7965625
31.84125
31.8250625
31.93925
31.8270625
31.89525
31.8320625
31.8695625
31.8745625
31.912
31.9635625
31.8655625
31.8900625
31.812
31.815
31.882
31.8155625
31.84925
31.81
31.8335625
31.7655625
31.9245625
31.8980625
31.9955625
31.8545625
31.894
31.83025
31.80625
31.878
31.875
31.8325625
31.8375625
31.746
31.804
31.745
31.753
31.77625
31.8615625
31.8305625
31.7490625
31.7845625
31.7980625
31.76725
31.72
31.8115625
31.77125
31.8650625
31.7500625
31.734
31.97425
31.76125
31.87
31.7520625
31.89
31.90925
31.922
31.984
31.9545625
31.94
31.93
31.9600625
31.9290625
31.88625
31.9500625
31.953
31.9450625
31.95125
31.8895625
31.974
31.95325
31.9155625
31.898
31.9825625
31.9030625
31.987
31.9840625
31.93125
31.865
31.9195625
31.99025
31.8985625
31.999
31.9780625
31.9270625
31.83825
31.934
31.888
31.94325
31.936
31.9900625
31.8705625
31.78425
31.796
31.9455625
31.917
31.9280625
31.8775625
31.87125
31.9865625
31.7645625
31.892
31.8780625
31.79825
31.89425
31.834
31.77025
31.789
31.8630625
31.8825625
31.95925
31.979
31.9660625
31.8450625
31.9320625
31.9165625
31.95525
31.8905625
31.9680625
31.9190625
31.986
31.9875625
31.9135625
31.9175625
31.9385625
31.9480625
31.9895625
31.9490625
31.98525
31.9850625
31.873
31.901
31.923
31.8495625
31.8080625
31.8675625
31.81925
31.8265625
31.955
31.845
31.919
31.92725
31.88125
31.8055625
31.83225
31.88
31.8185625
31.8020625
31.851
31.9670625
31.905
31.866
31.863
31.9580625
31.83925
31.809
31.8105625
31.88825
31.75725
31.9745625
31.82625
31.8140625
31.7455625
31.805
31.91325
31.7855625
31.7440625
31.7905625
31.795
31.7395625
31.7725625
31.714
31.7080625
31.7885625
31.77425
31.719
31.7400625
31.8000625
31.724
31.84825
31.7025625
31.7460625
31.7285625
31.783
31.6590625
31.7865625
31.69725
31.764
31.8520625
31.6820625
31.6790625
31.832
31.80125
31.8065625
31.74325
31.68925
31.944
31.7035625
31.637
31.74625
31.775
31.8225625
31.6650625
31.7510625
31.704
31.6815625
31.6835625
31.7235625
31.6595625
31.6640625
31.63025
31.6715625
31.6665625
31.6805625
31.677
31.6675625
31.70125
31.6130625
31.7000625
31.6510625
31.7815625
31.76525
31.6685625
31.577
31.727
31.6345625
31.5990625
31.6690625
31.5895625
31.6250625
31.614
31.589
31.5815625
31.5930625
31.7535625
31.78925
31.76925
31.8890625
31.817
31.818
31.71925
31.8460625
31.7360625
31.83425
31.732
31.7210625
31.77225
31.786
31.8730625
31.72025
31.88425
31.75
31.7465625
31.8290625
31.7890625
31.70525
31.7290625
31.6725625
31.6990625
31.6915625
31.7300625
31.703
31.64125
31.7110625
31.6965625
31.7275625
31.6375625
31.68225
31.748
31.79325
31.64625
31.6955625
31.7255625
31.8050625
31.701
31.828
31.662
31.6080625
31.655
31.65125
31.7165625
31.6875625
31.79425
31.6215625
31.6120625
31.77825
31.669
31.8295625
32.00025
31.907
31.9260625
31.7740625
31.8510625
31.7435625
31.76825
31.762
31.7200625
31.8435625
31.7190625
31.8410625
31.801
31.84
31.8300625
31.7780625
31.8255625
31.80925
31.8100625
31.7295625
31.8735625
31.772
31.7950625
31.736
31.86
31.7
31.7470625
31.6625625
31.694
31.7335625
31.90625
31.756
31.7420625
31.8600625
31.7185625
31.8245625
31.64725
31.6505625
31.676
31.8135625
31.7530625
31.6600625
31.6775625
31.63625
31.6950625
31.6895625
31.6670625
31.66325
31.91825
31.6485625
31.5945625
31.6930625
31.6395625
31.5780625
31.6795625
31.68625
31.705
31.617
31.58225
31.6845625
31.75525
31.77725
31.7870625
31.777
31.82
31.7825625
31.769
31.7540625
31.7975625
31.7550625
31.8280625
31.7375625
31.8475625
31.7085625
31.78825
31.7365625
31.76
31.839
31.67425
31.697
31.67625
31.6290625
31.716
31.67125
31.768
31.7020625
31.78225
31.7140625
31.6300625
31.715
31.71325
31.70025
31.689
31.6870625
31.658
31.6985625
31.711
31.744
31.6975625
31.6610625
31.6620625
31.6100625
31.6745625
31.646
31.6565625
31.6710625
31.643
31.65525
31.6015625
31.7240625
31.6520625
31.7135625
31.6280625
31.71825
31.7555625
31.6515625
31.6535625
31.6090625
31.6480625
31.61325
31.624
31.6045625
31.6435625
31.623
31.713
31.7215625
31.65825
31.594
31.632
31.6240625
31.6285625
31.61
31.6075625
31.6800625
31.665
31.598
31.64525
31.738
31.70725
31.74525
31.73025
31.747
31.7960625
31.8855625
31.74725
31.90025
31.8535625
31.8175625
31.824
31.8170625
31.6460625
31.73625
31.7495625
31.69325
31.739
31.673
31.7090625
31.708
31.841
31.8025625
31.7005625
31.7705625
31.7160625
31.8090625
31.6635625
31.622
31.742
31.691
31.7450625
31.63325
31.8575625
31.7745625
31.6155625
31.692
31.74
31.65925
31.70225
31.6760625
31.611
31.696
31.6740625
31.657
31.72825
31.7370625
31.8685625
31.54625
31.5970625
31.7405625
31.829
31.958
31.787
31.9125625
31.921
31.8165625
31.85225
31.8815625
31.88525
31.899
31.7775625
31.70425
31.66925
31.7505625
31.7445625
31.72225
31.8605625
31.7355625
31.8110625
31.73125
31.7610625
31.722
31.80525
31.75125
31.67725
31.7130625
31.72425
31.68
31.6840625
31.93625
31.7220625
31.6575625
31.81625
31.7155625
31.68025
31.717
31.65
31.6270625
31.702
31.6475625
31.6540625
31.651
31.688
31.7070625
31.685
31.6255625
31.5965625
31.825
31.6295625
31.7075625
31.5905625
31.603
31.7630625
31.765
31.6960625
31.7710625
31.798
31.83125
31.935
31.914
31.788
31.7310625
31.7670625
31.807
31.76325
31.73525
31.7785625
31.7060625
31.7340625
31.67525
31.693
31.74125
31.709
31.68325
31.7120625
31.69825
31.7205625
31.7565625
31.7195625
31.71725
31.8145625
31.6810625
31.6525625
31.75325
31.67325
31.628
31.6125625
31.648
31.69025
31.6495625
31.7115625
31.5720625
31.707
31.681
31.6860625
31.675
31.6530625
31.7100625
31.698
31.6135625
31.6730625
31.6445625
31.60125
31.68425
31.626
31.6260625
31.663
31.6945625
31.7675625
31.6200625
31.5920625
31.596
31.721
31.629
31.661
31.5960625
31.616
31.6910625
31.61725
31.62525
31.638
31.85325
31.82825
31.7390625
31.7660625
31.8700625
31.7480625
31.776
31.8530625
31.858
31.8925625
31.73425
31.96125
31.83
31.7765625
31.66825
31.7570625
31.699
31.6920625
31.8045625
31.69525
31.78725
31.6440625
31.73325
31.7350625
31.7575625
31.7605625
31.785
31.81825
31.71225
31.64325
31.72925
31.985
31.7010625
31.687
31.8455625
31.71
31.718
31.726
31.5950625
31.62325
31.7150625
31.644
31.67825
31.6705625
31.6585625
31.60725
31.7015625
31.60525
31.64825
31.7230625
31.69125
31.8095625
31.7935625
31.9215625
31.741
31.8725625
31.794
31.806
31.79
31.92825
31.8355625
31.90725
31.8275625
31.9105625
31.8030625
31.8690625
31.7840625
31.73
31.8005625
31.78625
31.7910625
31.9940625
31.856
31.784
31.70925
31.803
31.71025
31.81325
31.75925
31.7585625
31.76425
31.6865625
31.7430625
31.8205625
31.7045625
31.7625625
31.631
31.7750625
31.752
31.6360625
31.7590625
31.7225625
31.671
31.778
31.767
31.859
31.58925
31.62625
31.6095625
31.66625
31.58825
31.61925
31.781
31.682
31.668
31.612
31.56125
31.621
31.60325
31.581
31.666
31.69425
31.6115625
31.5935625
31.564
31.6340625
31.595
31.75825
31.706
31.7175625
31.782
31.735
31.70825
31.7695625
31.76225
31.672
31.7560625
31.7620625
31.81225
31.7795625
31.72525
31.7325625
31.749
31.7475625
31.771
31.73225
31.7805625
31.754
31.879
31.761
31.728
31.791
31.7280625
31.68825
31.6580625
31.7635625
31.6390625
31.6750625
31.73825
31.7810625
31.6735625
31.67225
31.7180625
31.71625
31.6855625
31.75025
31.654
31.64025
31.6785625
31.6970625
31.63725
31.6265625
31.60925
31.6935625
31.649
31.6315625
31.641
31.6490625
31.6680625
31.6850625
31.62
31.64225
31.72625
31.656
31.6145625
31.60425
31.6330625
31.6085625
31.647
31.5575625
31.61825
31.667
31.56
31.5785625
31.606
31.5690625
31.63125
31.605
31.652
31.5840625
31.6225625
31.566
31.78025
31.7895625
31.82225
31.72325
31.84425
31.9230625
31.8160625
31.94925
31.729
31.7715625
31.88325
31.78125
31.71125
31.74025
31.792
31.73725
31.7685625
31.7125625
31.838
31.74925
31.7315625
31.73925
31.74225
31.8010625
31.75425
31.69
31.7320625
31.7525625
31.6400625
31.678
31.71425
31.6365625
31.723
31.68125
31.72725
31.6425625
31.71525
31.7485625
31.743
31.6755625
31.56025
31.6000625
31.731
31.76025
31.6430625
31.6405625
31.68525
31.55125
31.6470625
31.62925
31.6380625
31.7170625
31.72125
31.7900625
31.751
31.7345625
31.8430625
31.725
31.8260625
31.7385625
31.7755625
31.8330625
31.7245625
31.712
31.79025
31.7665625
31.76625
31.695
31.6995625
31.82325
31.69225
31.7700625
31.7095625
31.635
31.7260625
31.6940625
31.74425
31.7305625
31.6550625
31.679
31.96025
31.7410625
31.797
31.65425
31.6825625
31.86825
31.6415625
31.70325
31.5995625
31.6355625
31.7105625
31.63225
31.63925
31.66425
31.757
31.6110625
31.7580625
31.7030625
31.61625
31.6830625
31.59725
31.6980625
31.6310625
31.584
31.6180625
31.65025
31.5680625
31.582
31.5820625
31.58
31.633
31.5240625
31.6420625
31.506
31.52825
31.51325
31.5400625
31.5700625
31.65725
31.5470625
31.5145625
31.57725
31.5735625
31.502
31.5755625
31.5800625
31.5200625
31.63
31.684
31.65225
31.613
31.55
31.5165625
31.533
31.573
31.568
31.5015625
31.5285625
31.529
31.57325
31.659
31.6160625
31.5980625
31.5395625
31.59
31.664
31.5040625
31.559
31.57925
31.5010625
31.591
31.517
31.5610625
31.59325
31.524
31.5280625
31.549
31.5510625
31.518
31.5455625
31.5305625
31.52125
31.59925
31.6780625
31.7145625
31.6335625
31.57225
31.586
31.7330625
31.6230625
31.627
31.57425
31.6245625
31.6770625
31.6150625
31.6630625
31.737
31.5275625
31.541
31.5070625
31.62425
31.5130625
31.5525625
31.6020625
31.5185625
31.5910625
31.5795625
31.66025
31.508
31.5900625
31.5465625
31.61225
31.54225
31.5885625
31.6060625
31.6385625
31.5825625
31.67925
31.6885625
31.65625
31.65325
31.6720625
31.61025
31.6545625
31.6905625
31.6645625
31.5370625
31.5955625
31.59125
31.61425
31.7270625
31.59525
31.6605625
31.6695625
31.5320625
31.5865625
31.512
31.653
31.585
31.5180625
31.7055625
31.50825
31.60225
31.608
31.7050625
31.5115625
31.6900625
31.5250625
31.5760625
31.58425
31.57825
31.6275625
31.6
31.5520625
31.674
31.55325
31.602
31.67
31.6010625
31.63825
31.6040625
31.615
31.6465625
31.5875625
31.56925
31.6105625
31.5810625
31.56625
31.6050625
31.554
31.5620625
31.6030625
31.53
31.5830625
31.6655625
31.5140625
31.5480625
31.563
31.53125
31.5150625
31.507
31.50625
31.625
31.55225
31.59425
31.53525
31.519
31.542
31.509
31.66125
31.604
31.505
31.51925
31.5925625
31.5625625
31.6350625
31.6455625
31.5675625
31.6450625
31.56325
31.5765625
31.5845625
31.5775625
31.58525
31.6025625
31.5350625
31.62725
31.60625
31.69625
31.6660625
31.5425625
31.5705625
31.5325625
31.555
31.593
31.561
31.609
31.5355625
31.5870625
31.53425
31.525
31.6165625
31.5555625
31.61525
31.503
31.588
31.5745625
31.5225625
31.56425
31.56825
31.5450625
31.5615625
31.50425
31.5855625
31.6890625
31.6325625
31.59225
31.6765625
31.545
31.62025
31.543
31.50125
31.53325
31.636
31.64425
31.5120625
31.5485625
31.6205625
31.6370625
31.634
31.5080625
31.619
31.5170625
31.5715625
31.56525
31.51125
31.5055625
31.5360625
31.5090625
31.5415625
31.5290625
31.66225
31.5110625
31.62125
31.534
31.5235625
31.51525
31.6305625
31.5435625
31.64925
31.686
31.52225
31.63425
31.5605625
31.539
31.5410625
31.5565625
31.5635625
31.60025
31.6220625
31.592
31.567
31.5985625
31.59025
31.6615625
31.5430625
31.5590625
31.5405625
31.5375625
31.6500625
31.583
31.57025
31.5740625
31.70625
31.6175625
31.535
31.5915625
31.59825
31.58025
31.5695625
31.579
31.5295625
31.5020625
31.513
31.50225
31.5490625
31.645
31.5075625
31.5210625
31.51725
31.5045625
31.57125
31.64
31.5050625
31.5550625
31.531
31.53025
31.516
31.50725
31.53725
31.55925
31.5345625
31.51825
31.607
31.5190625
31.55025
31.5095625
31.6070625
31.5545625
31.6320625
31.5505625
31.58725
31.6925625
31.6700625
31.58625
31.69925
31.5835625
31.6570625
31.601
31.56725
31.5515625
31.5790625
31.683
31.59625
31.572
31.55725
31.532
31.552
31.5670625
31.54
31.52525
31.642
31.5100625
31.5310625
31.5205625
31.5420625
31.6170625
31.538
31.56225
31.5340625
31.551
31.5665625
31.5035625
31.55525
31.504
31.5850625
31.58125
31.5260625
31.5890625
31.5500625
31.6035625
31.6555625
31.5300625
31.55825
31.548
31.5725625
31.5940625
31.7065625
31.7040625
31.5975625
31.6190625
31.526
31.5530625
31.5315625
31.5495625
31.58325
31.54925
31.52725
31.5060625
31.553
31.5125625
31.52
31.5560625
31.6880625
31.537
31.53825
31.514
31.565
31.527
31.5105625
31.5570625
31.515
31.5155625
31.574
31.52625
31.66525
31.733
31.5195625
31.5230625
31.5475625
31.521
31.6185625
31.578
31.5255625
31.5805625
31.50325
31.618
31.5265625
31.5580625
31.5335625
31.5025625
31.54825
31.5440625
31.6210625
31.569
31.52925
31.5540625
31.558
31.51625
31.62225
31.54725
31.7425625
31.54025
31.61125
31.556
31.528
31.6005625
31.5085625
31.576
31.5065625
31.5445625
31.5385625
31.5270625
31.5770625
31.51425
31.511
31.5390625
31.54125
31.5600625
31.536
31.50925
31.5585625
31.6065625
31.5460625
31.5365625
31.51225
31.5880625
31.523
31.57625
31.5640625
31.5330625
31.5175625
31.575
31.55625
31.544
31.52325
31.546
31.5730625
31.6195625
31.5535625
31.5595625
31.51025
31.639
31.5030625
31.50525
31.5160625
31.5655625
31.5245625
31.5630625
31.53925
31.5220625
31.66
31.5750625
31.53625
31.5650625
31.5685625
31.6560625
31.68725
31.57
31.6055625
31.63525
31.54325
31.5645625
31.6140625
31.571
31.599
31.6235625
31.67025
31.557
31.66725
31.6410625
31.54425
31.52025
31.522
31.5215625
31.587
31.62825
31.57525
31.547
31.562
31.5710625
31.52425
31.53225
31.51
31.5660625
31.5380625
31.597
31.54525
31.60825
31.55425
31.5135625
31.5860625
)


// ************************************************************************* //
