/*--------------------------------*- C++ -*----------------------------------*\
  =========                 |
  \\      /  F ield         | OpenFOAM: The Open Source CFD Toolbox
   \\    /   O peration     | Website:  https://openfoam.org
    \\  /    A nd           | Version:  7
     \\/     M anipulation  |
\*---------------------------------------------------------------------------*/
FoamFile
{
    version     2.0;
    format      ascii;
    class       vectorField;
    location    "2/lagrangian/coalCloud1";
    object      angularMomentum;
}
// * * * * * * * * * * * * * * * * * * * * * * * * * * * * * * * * * * * * * //


2000
(
(5.740523799e-10 1.874470351e-09 -1.538147708e-10)
(-6.342421939e-10 1.031633816e-09 -2.633451615e-11)
(-4.847317954e-10 -1.228925099e-09 7.403150742e-11)
(4.368249137e-10 -4.123143048e-10 -2.482987599e-10)
(5.041543014e-10 -1.309289579e-10 -7.164695626e-12)
(1.517239696e-09 -5.415502028e-10 -2.307486248e-11)
(-3.144165583e-10 9.498180864e-10 -1.521711751e-10)
(-6.343693192e-10 -1.602474634e-10 1.452158957e-10)
(1.557729658e-10 3.130362332e-10 -2.174865859e-10)
(2.248729132e-11 -1.378183942e-09 2.607553579e-10)
(6.113215336e-10 1.170383331e-10 -2.458394783e-12)
(8.414668257e-11 -2.409981945e-10 2.411402247e-11)
(-9.674902706e-11 -8.005906241e-11 -5.258964859e-11)
(-3.150830668e-10 -1.498697245e-10 3.503955429e-11)
(-1.699625386e-10 -9.120727267e-12 -1.722044144e-10)
(5.913349984e-13 5.744406742e-10 -8.076804709e-11)
(-4.921223856e-11 3.212321426e-10 1.563694488e-10)
(1.915462427e-10 -1.507976153e-10 -5.253467507e-11)
(5.989405488e-10 3.277289451e-10 -2.673892957e-10)
(-4.447338265e-11 4.00455282e-10 -6.388906773e-11)
(-5.30233706e-11 -3.35542613e-10 1.385713539e-10)
(8.526679913e-10 3.188911862e-10 -1.361709783e-10)
(-1.098238845e-10 5.24538778e-10 7.048476649e-11)
(-5.792663e-10 1.427967829e-10 1.574978641e-10)
(-5.338078889e-11 1.512935623e-10 2.694673242e-10)
(5.815623531e-10 4.985776922e-11 4.12733282e-10)
(3.670232652e-10 3.964269102e-10 4.57778923e-10)
(-1.861532316e-10 7.320570268e-10 1.959894994e-10)
(2.462166033e-10 -5.708631573e-10 8.690542554e-12)
(6.763817425e-10 -6.276233278e-11 -5.665326354e-11)
(1.343747517e-10 1.197178889e-10 1.719550778e-11)
(-6.657051788e-10 2.126173596e-10 -2.400736332e-10)
(-4.108855303e-10 7.592406582e-11 8.688667606e-11)
(-6.469711014e-10 5.786700223e-10 -9.008544189e-11)
(3.833126889e-10 -2.075550076e-10 2.02995454e-10)
(-2.318585207e-10 1.064497674e-10 1.59754412e-10)
(4.574138018e-10 2.144283675e-10 -2.255589081e-10)
(-8.639674377e-11 -5.125601866e-11 -1.160698843e-10)
(5.660584125e-11 2.03222513e-10 1.758369615e-10)
(-2.746759401e-10 -1.028927629e-10 -1.923567655e-10)
(-1.154167554e-10 -2.027270114e-10 3.089219712e-10)
(-2.241194636e-11 1.406102399e-10 -3.799000015e-10)
(-2.519901204e-10 -2.858422637e-10 2.842021776e-10)
(2.029126831e-10 -1.837623304e-10 -4.638373887e-12)
(-1.332988459e-10 -2.979142099e-10 1.436291345e-10)
(6.202984171e-11 -2.286314515e-10 -5.509194553e-11)
(1.415503603e-10 1.697210038e-10 6.195770399e-11)
(-2.264269791e-10 -1.922847829e-10 -1.15877041e-10)
(1.554298141e-10 -6.427154194e-11 -1.160551392e-10)
(-1.064565169e-10 -1.132677757e-10 1.524198698e-10)
(-6.424677804e-12 -1.040038986e-10 -2.110438727e-10)
(8.023601415e-11 -3.681175082e-11 5.323305617e-11)
(1.911666599e-10 -3.403326812e-11 -8.690260973e-11)
(3.616918438e-11 -5.034192108e-11 -5.852061229e-11)
(1.30722856e-10 5.750873044e-11 7.737014092e-11)
(8.045397151e-11 7.231805154e-12 9.022945687e-11)
(2.040583313e-10 -3.536829729e-10 -1.443360262e-10)
(-7.048502465e-12 -3.23129287e-11 -1.457559783e-11)
(4.886491583e-11 8.037080007e-11 -3.22322857e-11)
(4.525883854e-11 -1.493562048e-11 5.318981604e-11)
(-2.19724582e-10 -7.325178073e-11 -1.828072334e-10)
(-1.495087042e-11 -1.312142457e-10 1.700009401e-11)
(9.945874188e-11 4.945448167e-11 8.253007932e-11)
(-7.599895887e-11 -1.147620532e-10 5.581449157e-13)
(-1.226744053e-11 -2.920351571e-10 9.653221992e-11)
(-8.684576686e-11 -2.014703216e-10 1.55068823e-10)
(3.090654018e-11 -1.838873131e-10 3.156442256e-10)
(-8.376849525e-11 9.73913973e-11 -1.440727849e-10)
(-1.899233702e-10 -9.250523465e-13 2.586534025e-10)
(-1.237899074e-10 2.973109739e-11 2.947563141e-10)
(6.915791675e-11 4.845048745e-11 9.359158428e-11)
(-4.248256968e-11 -1.283239944e-10 -2.173216645e-11)
(7.946839893e-11 -1.792192144e-10 6.330628739e-11)
(1.230802777e-10 -1.495720658e-10 1.617563838e-10)
(-1.699882597e-10 1.302908728e-10 4.106653911e-11)
(-9.2070627e-11 1.787625601e-10 -8.484216737e-11)
(1.2643065e-10 -3.838729767e-11 -9.273564144e-11)
(6.182340025e-11 1.044722742e-10 4.333503912e-11)
(-7.273864729e-11 6.467986119e-11 -8.765341091e-11)
(-2.95445285e-11 1.765685964e-10 7.529383814e-11)
(-2.725621369e-10 1.237798147e-10 3.000986447e-11)
(2.192925062e-11 -6.39525515e-11 -1.642379786e-10)
(6.232897859e-10 1.136686205e-10 -2.932881389e-10)
(2.711476499e-10 -5.07825522e-11 2.65749911e-10)
(2.788575268e-10 1.294374089e-10 1.289989023e-10)
(-6.007838626e-11 -1.800812055e-10 3.066527883e-10)
(-6.86377425e-10 -1.376593191e-10 -3.095696254e-10)
(3.170657663e-10 7.066693099e-11 1.595593741e-10)
(8.128667662e-10 6.026158615e-11 -4.932160889e-11)
(1.741189405e-10 -3.7944015e-10 -2.046608809e-11)
(-2.057862888e-11 -4.268952413e-11 9.373073307e-11)
(-1.885906863e-09 5.429807552e-11 -3.313134233e-10)
(-1.252530809e-09 1.280765201e-09 -3.554591391e-10)
(-4.757315117e-10 4.349941954e-10 -6.368219245e-11)
(5.443649376e-11 -8.239686921e-11 -2.063357215e-10)
(-3.652676105e-10 -8.86138278e-10 2.223315075e-10)
(3.976134158e-10 6.268408486e-10 -3.25174248e-10)
(-9.667960716e-11 -4.113345893e-10 3.12398072e-10)
(-2.770231157e-10 3.290751634e-10 -2.861059346e-10)
(2.234536955e-10 -9.624929803e-12 -2.299365682e-11)
(3.76045292e-12 6.198522622e-11 -2.964575352e-10)
(-7.18514272e-10 -2.311592587e-11 1.217262689e-10)
(-1.480614277e-10 3.939315445e-10 -1.383275862e-10)
(3.739937889e-10 2.251027425e-10 9.859110823e-11)
(4.227621339e-10 -4.678491557e-11 6.98985948e-11)
(-3.128847891e-11 2.521882817e-10 7.432286732e-11)
(-5.927426056e-10 -5.813100407e-10 2.422109641e-10)
(-1.430554039e-10 -1.287541534e-10 -2.823937575e-10)
(3.808992021e-10 1.738671442e-10 4.063753807e-10)
(-6.760100991e-11 -1.365667464e-10 1.041439878e-10)
(-7.605267013e-12 -5.784638432e-11 1.084336092e-10)
(-7.970784567e-11 1.237309761e-10 3.535881572e-11)
(6.125746307e-10 -1.767188919e-10 1.23666753e-10)
(7.851391138e-11 -1.055393317e-10 -8.407435155e-11)
(3.256368837e-11 3.301241666e-10 -1.446470995e-10)
(-2.125323534e-10 -3.486016791e-10 1.786032803e-10)
(-3.478108056e-11 -1.788376042e-11 -2.28558944e-11)
(6.349187035e-11 -1.008064002e-10 -1.70393694e-11)
(1.084308039e-10 1.134279028e-10 7.375201708e-11)
(5.57033904e-10 -4.25121544e-11 -3.49093378e-10)
(5.52016052e-10 7.050795878e-11 2.405564104e-11)
(-8.849691947e-11 -3.336855963e-13 2.387798063e-11)
(1.998885003e-10 1.540781171e-10 -3.18872425e-10)
(-1.007271995e-10 -6.794708414e-10 4.212749545e-11)
(-4.379696018e-10 -4.076396909e-11 -9.995515476e-11)
(4.253834084e-10 -1.075411715e-10 1.851750163e-10)
(4.773201884e-10 -4.167342263e-11 -2.261333519e-10)
(3.048974438e-11 7.628226945e-11 -4.728670586e-11)
(-2.056532155e-10 -2.621691939e-10 3.972599107e-10)
(-7.572988006e-11 -9.769753673e-11 -1.234264196e-10)
(-1.092265642e-10 9.14309892e-11 1.270931514e-10)
(-5.439080349e-11 1.284285091e-10 -9.885788189e-11)
(6.467530567e-11 1.552865679e-10 2.379081625e-10)
(1.017385004e-11 2.591936592e-11 -3.402482927e-10)
(-2.797198003e-10 -1.797767781e-10 1.101081049e-10)
(-4.576343514e-10 -2.591795483e-10 4.217360554e-10)
(1.281150133e-10 1.245714741e-10 -2.618324645e-10)
(-8.925738983e-10 -1.49583111e-09 -4.755537646e-11)
(2.863069828e-10 1.556697541e-09 -2.122567726e-10)
(5.390841137e-10 -1.014898616e-09 -2.547102236e-10)
(1.593781235e-10 1.023235152e-09 -1.332893238e-10)
(1.309067071e-09 3.074243112e-10 3.660143636e-10)
(-6.694220634e-11 1.967814675e-10 -1.269429265e-10)
(5.962767125e-10 5.953632143e-10 1.302096758e-10)
(7.842479019e-10 -6.082031216e-10 1.836458334e-10)
(2.375187855e-11 -1.40033324e-10 5.112880041e-11)
(-4.40660536e-10 -9.445362624e-10 -4.566337154e-10)
(-5.794622091e-10 3.670723341e-10 -2.115933303e-10)
(2.490058942e-10 -7.031077096e-11 2.912192763e-10)
(9.927548098e-10 1.044328717e-09 -5.881319147e-11)
(-1.127185198e-09 -9.644611078e-11 4.016039925e-10)
(-6.111862203e-11 2.928339335e-10 -1.593529368e-10)
(8.408461765e-10 -5.834269352e-12 -1.604764e-11)
(-7.082750118e-10 -1.947760793e-09 1.597130584e-10)
(-2.701067561e-12 6.265782136e-12 -3.483311927e-10)
(2.088465945e-10 -6.958276448e-10 1.05880508e-10)
(-7.793147388e-12 4.301181442e-10 -7.468498525e-11)
(7.308209985e-11 2.228908515e-13 -1.517415724e-10)
(-1.289691582e-11 -1.921051624e-10 -3.366816386e-10)
(6.743402733e-11 -5.541640208e-10 3.520393346e-10)
(-2.757421221e-11 3.562988543e-10 1.202110772e-10)
(6.461845773e-10 2.074287849e-10 1.801253323e-10)
(8.215037292e-11 5.06049811e-10 2.575538565e-10)
(-6.617477443e-11 -5.933820718e-10 -3.003574606e-11)
(2.688386134e-11 1.275120615e-10 2.440124706e-10)
(-2.082031194e-10 5.134046876e-10 -7.180629447e-12)
(-4.791743547e-10 -3.695894415e-10 -1.526260722e-10)
(-1.751530168e-10 1.367820802e-10 2.307831641e-10)
(3.035076944e-11 -1.187801007e-10 3.297980502e-10)
(-1.677778542e-10 1.051822159e-10 2.95032098e-10)
(6.766392249e-11 7.616633835e-12 -2.578504045e-10)
(-1.014483115e-10 2.023580804e-10 -8.978529711e-11)
(1.149423792e-11 -9.020081524e-11 -1.078743495e-11)
(1.85193214e-11 1.864965294e-11 3.510290039e-11)
(1.473487712e-10 7.6978867e-11 -3.929743944e-11)
(1.170401518e-10 8.120584741e-11 7.873636892e-11)
(-1.482149371e-10 1.39042064e-10 -3.191939066e-10)
(-2.136106152e-11 -1.535975506e-10 4.2201147e-11)
(4.252237585e-11 1.347123256e-10 1.225039408e-10)
(2.869343094e-10 1.801574154e-10 -3.130523322e-10)
(-1.444876416e-10 -2.171375046e-10 5.243467825e-10)
(1.999174115e-10 -5.947506397e-11 5.684257506e-11)
(-3.249907446e-10 4.202193388e-10 4.894569405e-10)
(-5.754919475e-11 -3.319540336e-10 3.406244722e-10)
(1.558891695e-10 2.056120193e-10 -8.496277499e-11)
(-1.617034186e-10 -3.165710654e-10 -2.744061037e-10)
(9.025590519e-11 -2.15653236e-10 -7.46919539e-11)
(-3.946481654e-11 1.710388536e-10 6.582943975e-11)
(-8.254681019e-11 -3.627147784e-10 1.287833285e-10)
(-8.78025579e-11 -5.13763029e-10 6.493844246e-11)
(-1.851931059e-10 1.056590184e-10 -2.159083335e-11)
(4.916871375e-10 -9.333674848e-12 2.090444465e-10)
(-2.079416219e-10 1.482096317e-10 8.082394886e-11)
(2.250488935e-10 -5.880278341e-11 -2.603687434e-10)
(1.217563684e-10 -4.587760115e-10 1.220167581e-10)
(1.96191313e-11 -5.551456168e-10 -5.229331019e-10)
(-4.232379322e-10 3.527106176e-10 3.344997283e-10)
(-5.534538092e-10 -8.581431589e-10 -2.752608029e-10)
(-9.841656418e-10 -1.46555897e-09 1.422176857e-10)
(1.086927324e-09 2.463135483e-10 1.665079183e-10)
(-1.106229462e-09 -2.983505384e-10 1.392289107e-10)
(7.188837691e-10 -5.661093248e-10 3.790531264e-10)
(3.660451343e-10 9.436779633e-10 2.487352204e-10)
(4.693385805e-10 2.066137054e-10 5.83165734e-11)
(-8.585526677e-10 7.815611993e-10 1.59850474e-10)
(7.69438179e-10 -6.739171753e-10 1.328253186e-10)
(4.898653463e-11 -7.762849757e-10 -4.055662408e-10)
(5.510506933e-10 5.691419364e-10 -3.093583373e-10)
(-3.491349211e-10 -1.206788348e-09 1.168643845e-10)
(1.32727136e-10 -4.316831136e-10 1.047138518e-10)
(-8.738364337e-10 7.841106779e-10 2.890501266e-10)
(8.472585311e-11 -6.077789033e-10 8.450266086e-11)
(4.859679908e-10 -9.029148259e-10 5.252081183e-11)
(3.007573608e-10 1.218976191e-10 3.829103031e-10)
(2.817381927e-11 4.269297633e-10 2.049151153e-11)
(-6.531011356e-10 3.690425294e-10 -1.6082682e-10)
(3.365720644e-10 1.404785838e-10 3.007873142e-10)
(-6.034591026e-11 1.384169304e-10 -2.050936713e-10)
(-3.872583708e-10 8.177402586e-11 -3.18627684e-10)
(-2.949119561e-10 4.287350922e-10 1.922711732e-10)
(-3.726115677e-11 2.416548276e-11 4.977184499e-10)
(5.490857888e-10 -2.986678753e-10 -1.195993521e-10)
(-2.871799491e-10 -6.487971772e-10 2.954145316e-10)
(4.449328847e-10 -2.400469422e-10 1.161348889e-10)
(1.984605323e-10 1.168178081e-10 4.771463496e-11)
(9.698957e-10 1.169349769e-10 1.217663089e-10)
(-1.868838603e-10 2.965999957e-10 -4.887600561e-10)
(-5.390638421e-10 8.022399365e-11 -2.274054421e-10)
(-2.797439861e-10 6.063855645e-10 -2.212682477e-10)
(-8.421138985e-11 -1.212912882e-11 -3.968635761e-11)
(-7.514453798e-10 -3.059556904e-11 1.226922267e-10)
(-8.464243234e-11 1.551278229e-10 1.16459263e-10)
(4.231088132e-10 -2.55771616e-10 4.283437209e-10)
(4.917412844e-12 1.913271823e-10 -2.386074472e-10)
(1.530255186e-10 -1.895001946e-11 -4.107476971e-10)
(1.696940152e-10 1.987168404e-11 3.136787843e-10)
(-8.304079518e-11 4.887857454e-10 1.625271561e-10)
(-1.822219524e-10 1.825659091e-10 -3.636611728e-10)
(-7.522013881e-11 1.022000765e-10 -5.406151582e-10)
(1.501766373e-10 1.166529565e-10 -4.045639075e-10)
(4.219760005e-11 -3.94183772e-10 2.136846269e-11)
(2.925520151e-12 2.276886644e-10 -1.850803833e-10)
(8.18861857e-11 -2.189171434e-10 1.154464063e-10)
(3.354827568e-10 5.209570469e-10 7.915017818e-11)
(4.163964798e-10 1.334633737e-10 -4.394485594e-11)
(-1.376909139e-10 -2.821542523e-10 2.968824879e-10)
(-1.368068288e-10 8.425336555e-12 5.97287807e-11)
(-4.150236793e-11 -2.412416175e-10 1.284201289e-10)
(1.877852706e-10 -3.373568203e-10 2.876880888e-10)
(2.331333936e-10 -1.335102109e-10 1.627904326e-11)
(-1.330595021e-10 -2.253192198e-10 -7.65950852e-11)
(-3.229524319e-10 -8.30097878e-11 -2.798266406e-10)
(-1.260722492e-10 1.051555665e-10 -1.298456562e-10)
(-9.879838951e-11 -9.340538292e-11 3.969307997e-10)
(1.802434732e-10 1.134563586e-10 6.096185807e-11)
(4.472436316e-10 3.012641299e-11 1.805034557e-11)
(1.026598932e-12 6.03752147e-12 -1.930266375e-11)
(-1.36024067e-10 -1.300520677e-10 -1.87941545e-10)
(9.975860406e-11 9.660234681e-12 -1.230979179e-10)
(-1.092591002e-10 -4.910733036e-11 1.839681187e-11)
(-6.413590767e-12 -3.530517582e-11 2.307401702e-10)
(-1.572425828e-10 -3.341643748e-10 6.020058093e-11)
(2.600077908e-11 -2.718063041e-10 1.512202702e-10)
(-1.468933093e-10 2.463677018e-10 5.35229035e-11)
(8.630764124e-11 -2.032597957e-10 9.916367478e-11)
(1.944446484e-10 -4.372644076e-11 2.482112264e-10)
(-7.439692e-11 6.627475256e-10 2.461514393e-10)
(5.175347311e-10 -5.762061213e-10 1.65834665e-10)
(-1.415779155e-10 1.682772795e-10 -1.365913175e-10)
(-1.775317058e-10 -2.830053538e-10 -2.049527083e-10)
(-4.079652305e-11 1.131143529e-10 1.028351434e-10)
(-2.407967659e-10 -2.842277089e-11 -2.9312486e-10)
(-4.283710409e-11 -5.540662574e-10 5.8404547e-11)
(7.260360311e-10 -5.974120262e-10 8.665026782e-11)
(-5.968865796e-10 2.071514449e-09 -5.892441174e-10)
(-1.094240262e-09 1.827702336e-10 -2.811300474e-11)
(-1.107762453e-09 3.386333974e-10 -7.145391671e-11)
(8.875282372e-10 4.736706957e-11 -2.934596019e-10)
(-4.366923761e-10 5.155655266e-10 -2.9028929e-11)
(6.93463093e-10 7.112198135e-12 1.195502847e-10)
(-1.364615836e-10 4.780472888e-10 -1.897832374e-10)
(-7.852620284e-10 8.113852201e-10 -2.495976882e-10)
(3.118225787e-10 5.945806349e-11 -1.301484722e-10)
(4.793808164e-10 -3.183973159e-10 -9.929330744e-11)
(-6.195873613e-11 -1.097256559e-10 2.292810876e-10)
(1.483536705e-10 1.254092448e-10 6.403125418e-12)
(1.421160249e-10 1.723723884e-10 -1.588266422e-10)
(2.230788452e-10 1.889249137e-10 -3.929075336e-10)
(6.175598703e-10 -1.13094726e-11 1.918911707e-10)
(-8.754175031e-10 -1.085473278e-10 -5.723099202e-11)
(-6.249589372e-11 8.422363384e-11 9.247066912e-11)
(-7.292001531e-11 -9.910304068e-10 1.17823401e-10)
(-7.273741283e-10 -1.418514181e-10 1.619969451e-10)
(-6.874139175e-10 8.234534993e-10 3.866745395e-10)
(1.590937028e-10 -2.903627498e-10 -2.167111664e-10)
(-1.909195726e-10 -1.725258495e-11 -2.526464114e-10)
(-5.178462065e-12 4.060934937e-11 2.933830856e-10)
(3.715212439e-10 -4.489851961e-10 1.008677915e-10)
(3.029864882e-10 -1.744217146e-10 4.814298881e-11)
(1.668006269e-11 9.778095569e-11 -1.230206153e-10)
(7.832362987e-11 -1.131973073e-10 -5.01202067e-11)
(-3.334659607e-10 -2.191326618e-10 -1.173525987e-10)
(2.025288519e-10 1.224730286e-10 1.999826313e-10)
(1.960880603e-10 -1.402382307e-10 -2.055721344e-10)
(3.698312819e-10 1.883677751e-10 -5.422146701e-11)
(1.963086861e-10 -1.210170375e-10 -1.308992186e-10)
(-1.350519859e-11 1.615442886e-10 -5.456811931e-11)
(2.394080149e-10 1.229504965e-10 -1.021961039e-10)
(1.506775645e-10 -1.208350872e-10 -1.324060217e-10)
(2.532132554e-10 1.321706671e-10 -3.144227143e-10)
(3.611862121e-11 -3.781651345e-11 2.163732737e-11)
(-6.451365694e-10 -8.53109175e-11 4.161734355e-11)
(-2.376924284e-11 1.415975986e-10 -2.249254053e-10)
(-2.223783334e-13 -1.491106227e-12 1.471879635e-10)
(-3.792576863e-10 -2.711372116e-10 -6.244025105e-12)
(3.245023147e-10 -6.837318494e-11 -2.241090591e-10)
(1.331124318e-10 -5.657408422e-11 3.090025047e-11)
(1.121103652e-11 1.325339669e-11 -7.210710787e-11)
(-4.435166369e-10 -3.212454267e-11 -1.955071596e-10)
(1.438997858e-10 7.605334627e-11 -2.617164491e-11)
(-1.25740538e-10 1.114299647e-10 -2.63248135e-11)
(2.214936866e-10 1.286948016e-10 5.591102717e-12)
(3.87994782e-10 5.11894426e-11 6.512074539e-11)
(-1.753799411e-10 1.79007369e-11 3.299502152e-11)
(-6.337867174e-11 -4.884777913e-11 -2.453538524e-11)
(1.682380712e-10 2.13247338e-10 -9.422042245e-11)
(9.239050749e-11 -1.621916454e-10 -2.163582149e-11)
(-1.794921641e-10 -9.622455418e-11 -1.001163406e-10)
(3.317896292e-10 -2.512315751e-11 7.667849974e-11)
(4.744530233e-11 -1.118064022e-13 3.158785558e-11)
(-4.68993529e-11 1.921240227e-11 -5.519630466e-11)
(9.491037356e-10 -2.300561928e-10 -3.338055856e-10)
(5.205372572e-10 -1.183022237e-09 9.949113421e-11)
(5.53908881e-10 -1.652935192e-10 -7.81282998e-11)
(-9.397348501e-10 5.059560217e-10 6.07017127e-10)
(2.123158754e-10 -9.74469548e-10 -1.50329874e-10)
(2.905239781e-10 2.154439522e-10 1.581942519e-10)
(-1.023420147e-09 1.343735534e-09 7.584794859e-10)
(-4.577641024e-10 1.963859261e-09 -5.689687845e-11)
(4.286977753e-10 -1.50246063e-09 3.302953856e-10)
(8.432387984e-10 -1.332986502e-09 -2.264719704e-10)
(-2.694674714e-10 -4.040288791e-10 4.600493803e-10)
(-6.016749838e-11 1.230134828e-09 -4.395089197e-11)
(9.072052829e-10 9.882699224e-10 4.382727446e-11)
(-4.774149741e-11 3.007834361e-10 -2.729490705e-12)
(4.924750323e-10 -5.08238923e-10 6.911620297e-12)
(6.736680132e-10 -8.371461759e-10 7.901812748e-11)
(3.973459297e-10 8.990887402e-11 -5.722920363e-10)
(1.859598516e-10 5.214994328e-10 4.934936987e-10)
(-8.844570229e-10 6.046070249e-11 -1.652606428e-10)
(1.180420607e-10 1.505567099e-10 2.219174244e-11)
(-4.694937917e-10 -6.665383643e-10 -3.859690546e-10)
(3.217347501e-10 4.431163015e-10 -5.386484347e-10)
(2.296407882e-10 -1.863086988e-10 9.821397265e-11)
(3.608292622e-10 -1.560047504e-10 1.841215663e-10)
(4.257214837e-11 -3.565544908e-10 -4.660472092e-11)
(1.350898755e-09 4.512033867e-12 3.965764733e-11)
(-9.604473172e-11 -8.127427714e-11 -7.8683104e-11)
(-5.514545702e-11 -1.819139519e-11 2.881104494e-10)
(5.399818564e-10 1.520915978e-10 -1.847146563e-10)
(-4.282488604e-10 1.524159661e-10 -7.310385629e-11)
(-1.85406774e-11 2.85671241e-10 1.723777194e-10)
(-9.567772497e-11 5.460436151e-10 2.889361711e-10)
(2.956188712e-10 6.532111961e-11 -1.395086366e-10)
(7.262551807e-10 2.418335111e-10 -4.014318787e-10)
(3.24360981e-10 -2.21556367e-10 -3.876023501e-10)
(-1.420382188e-10 1.364127676e-11 -2.723206242e-10)
(9.772935696e-10 -6.055817596e-10 3.696867493e-10)
(-4.055243528e-10 2.167659574e-10 -1.676829963e-10)
(-2.027829116e-10 2.222787729e-10 -3.526222636e-10)
(1.233895418e-09 4.50091086e-10 6.447595844e-10)
(-1.6515038e-09 1.33988644e-09 -3.818213066e-10)
(-2.985064316e-10 -4.507135051e-10 3.830842659e-12)
(-6.953867131e-10 7.471811332e-10 -2.591240544e-10)
(7.331797664e-11 -1.797062158e-11 -6.86128911e-11)
(2.968362738e-10 -4.497020361e-11 1.951548288e-10)
(1.094603618e-10 2.931557744e-10 1.218699698e-10)
(4.679628082e-11 1.370957598e-10 -1.001831267e-10)
(-1.689622928e-10 4.460292438e-11 -1.207733879e-10)
(4.498836088e-11 -1.131196619e-10 3.837890945e-11)
(-8.065839963e-10 -5.184085337e-11 -5.771968053e-11)
(-3.205875737e-10 -7.819469402e-10 -1.036610072e-10)
(8.374395536e-10 -1.341888482e-10 4.497621812e-10)
(-2.270114268e-10 4.300727838e-10 7.397879124e-11)
(1.401958775e-09 3.29560962e-10 1.800898646e-09)
(-1.294403146e-09 5.388687034e-10 -7.319054441e-10)
(-1.31991585e-10 4.236334642e-11 -5.334814999e-10)
(-8.902702798e-10 -7.595573638e-10 1.627082831e-09)
(1.906346336e-10 1.706524734e-10 -2.911467214e-11)
(-5.692590984e-10 3.870329234e-10 -4.594160042e-11)
(6.074116375e-10 1.22307009e-10 2.801196733e-11)
(-2.365935162e-10 2.205846054e-11 -2.962825621e-10)
(-2.932724771e-10 1.899864002e-10 -1.668846005e-10)
(4.775790186e-11 4.686625002e-10 -5.176058988e-11)
(-1.408804157e-10 -4.28212802e-10 2.507311333e-10)
(-3.550608241e-11 5.789946016e-11 3.729212938e-10)
(-1.375549943e-10 2.683803428e-10 -2.386615023e-12)
(4.995323901e-11 -3.414970093e-10 1.546036064e-10)
(9.616888105e-10 1.516374069e-10 2.264219925e-11)
(3.81984361e-10 5.200823628e-12 -1.987561274e-10)
(5.658574755e-10 3.39609502e-10 -2.093447085e-11)
(-2.61481847e-10 -9.66146826e-11 7.70092061e-11)
(2.433828987e-10 -5.743859424e-10 3.484426508e-10)
(3.133592247e-11 -5.744612605e-10 5.601488937e-10)
(-1.314483745e-09 -3.50934604e-10 -2.356323097e-10)
(-4.157090508e-10 6.512400389e-10 2.356086531e-10)
(-8.219443781e-10 -4.08889882e-11 2.148604616e-10)
(-2.437958893e-10 -6.485273084e-10 -1.397977312e-10)
(-1.616261322e-10 3.89049111e-10 -3.925828482e-10)
(-1.737379141e-11 7.71268118e-10 -2.925733041e-10)
(9.889499797e-10 6.886800114e-10 1.189913933e-10)
(-5.407754216e-10 -5.219120783e-10 -1.852233914e-10)
(-1.195304166e-10 3.06960853e-10 -4.750549461e-12)
(5.690178011e-10 2.94101313e-10 -1.850461954e-10)
(-6.009258646e-10 -1.955928898e-10 1.747790589e-10)
(-2.204139628e-10 1.043780355e-10 -4.326424414e-11)
(3.607240188e-10 -7.485854542e-11 -3.328527579e-10)
(-3.277465386e-11 -1.670056801e-10 -3.329418494e-11)
(-1.024703996e-10 2.949494895e-10 -2.487047035e-10)
(5.889353231e-11 -3.120225164e-10 -2.166260829e-10)
(4.644733305e-10 7.978302723e-10 4.915059148e-11)
(4.762947351e-11 -2.007240787e-10 1.477725177e-11)
(-1.311176076e-11 -1.195142365e-10 -1.117565999e-10)
(-4.264535096e-10 1.012458051e-10 -1.405489087e-10)
(2.396314954e-10 2.224988953e-10 -9.483259105e-11)
(6.027576378e-11 1.024233477e-10 1.565434859e-10)
(-6.037090211e-11 -2.810195768e-10 1.132141687e-10)
(-4.911298934e-11 9.449080626e-11 -1.773727005e-10)
(2.681733941e-10 -2.170210637e-10 -2.898281446e-10)
(-5.100328098e-10 6.438320082e-11 5.050339973e-10)
(3.212042062e-10 3.679340682e-10 9.719525653e-11)
(-1.069483958e-10 3.584255818e-10 2.601421716e-10)
(-4.672118475e-11 2.374390038e-11 -4.304423546e-10)
(2.169112163e-10 3.161343234e-12 2.52963023e-10)
(-6.82843071e-11 -1.03876384e-10 2.539708323e-10)
(-1.075093242e-10 7.534395768e-11 3.366391134e-10)
(-1.929153827e-11 1.228768721e-10 -8.119788849e-11)
(-4.02863459e-14 -2.748486361e-11 -2.345055996e-10)
(8.97893017e-12 -9.66582351e-11 1.18936291e-11)
(9.549155383e-11 -1.481366004e-11 2.542793576e-10)
(7.50201425e-11 -1.372129958e-10 9.795278719e-11)
(-2.586693794e-10 -6.641404775e-11 2.063269348e-10)
(2.298866075e-12 -1.592116684e-11 -1.672287998e-10)
(1.59492133e-10 -1.484400247e-10 -1.741141171e-10)
(-1.137313494e-10 1.182354352e-10 -8.078617212e-11)
(-7.27179859e-11 4.834776133e-11 -6.010479348e-11)
(-1.363162263e-10 -3.002723143e-10 -2.324602269e-12)
(-2.888061203e-10 -1.122276547e-10 6.529404511e-12)
(-3.334811816e-11 4.970274206e-11 -6.634088089e-11)
(-1.414184091e-10 -5.358259918e-11 1.906078578e-10)
(-2.106698594e-11 -1.114422254e-10 6.333925013e-11)
(-3.050176681e-11 1.875092594e-11 -2.637939489e-10)
(-7.70225479e-11 -2.907442676e-10 9.274788554e-11)
(1.677460858e-11 2.818746696e-10 -1.143339748e-10)
(-2.733609387e-10 -2.138649613e-10 2.463170732e-10)
(-2.076769003e-10 1.994774974e-10 -2.327617661e-10)
(6.818868431e-11 1.039712046e-10 -2.105143507e-10)
(-4.660517549e-11 3.52224205e-10 -6.497205211e-11)
(1.574440501e-10 -4.686872743e-11 -1.409881403e-10)
(1.418069557e-10 -1.374086162e-11 1.213878109e-10)
(4.236362285e-11 -1.559204416e-10 9.462168989e-11)
(9.452921894e-11 9.954748574e-12 -1.968494364e-10)
(-2.573624885e-12 9.651237779e-11 9.81373366e-11)
(-2.049620439e-10 -1.141254366e-10 2.6185373e-11)
(2.361164375e-11 -1.480778372e-10 -2.965107718e-11)
(-7.787156482e-11 1.426404905e-10 -2.978424116e-10)
(1.544516775e-10 -4.339586106e-11 -3.541561505e-11)
(9.751045506e-11 9.191936431e-11 1.555530784e-10)
(-1.677876394e-10 -3.037182477e-10 6.054857041e-11)
(6.253832987e-12 2.672663036e-11 4.789390083e-11)
(-2.95888186e-11 2.578118068e-10 1.406112365e-10)
(-4.144761053e-10 -6.113435726e-10 3.958475908e-12)
(1.158696558e-09 -1.749061857e-09 -2.519388835e-10)
(5.456167756e-10 1.469903961e-09 -1.314829711e-10)
(-7.406770333e-10 2.912734188e-09 1.143367548e-10)
(-8.451840451e-10 -2.717440486e-10 -1.881497277e-10)
(4.247770095e-10 2.496345267e-12 5.35338297e-10)
(7.338535071e-10 1.148447049e-09 2.873417733e-10)
(2.40672195e-10 1.436905831e-10 1.463144014e-10)
(-6.160701407e-10 -3.797574541e-10 -1.108736753e-10)
(4.177481202e-10 -4.526814131e-10 9.361625711e-11)
(6.535672421e-11 -3.079037351e-11 -1.817079223e-10)
(6.082600605e-10 -1.362386078e-09 -1.152404714e-10)
(-5.654064789e-10 -3.875662019e-10 -4.20340885e-10)
(6.752609685e-10 1.18138766e-09 3.388640166e-10)
(-6.209646556e-10 -1.255019721e-10 1.883780077e-10)
(1.408996431e-11 -7.491817165e-10 6.731771697e-11)
(-2.286866804e-10 -1.202790929e-10 2.092254824e-10)
(6.930146455e-11 4.333415426e-10 -3.224468472e-10)
(6.641280309e-11 1.418851091e-09 -1.301909487e-10)
(-2.139099932e-10 2.133430176e-10 1.076676248e-10)
(5.204008568e-11 2.347920388e-10 3.503654786e-10)
(-1.448537397e-11 -1.269458927e-09 -2.776601599e-10)
(3.815215653e-10 1.407574938e-10 4.716299577e-11)
(1.955777799e-10 -3.426308451e-10 -1.686806197e-10)
(1.180419534e-10 -1.569590458e-10 1.334855499e-10)
(3.326321461e-10 4.931740285e-10 3.462724226e-10)
(-2.285198727e-10 2.869366199e-10 -1.116807017e-11)
(3.315506992e-10 -3.063053302e-10 -7.787456609e-11)
(2.743787669e-10 -1.610244771e-09 2.415436022e-11)
(1.742202295e-10 5.331854123e-10 -5.483469608e-11)
(2.043854516e-10 -2.645242031e-10 4.594022489e-10)
(2.275686917e-10 -4.82512993e-10 2.594584103e-10)
(-9.489283606e-11 3.541986143e-12 -4.392829107e-10)
(2.139836483e-11 -1.257226035e-10 -2.851019723e-10)
(-1.281963799e-10 3.46538419e-10 2.467630909e-10)
(-3.054276535e-10 -2.421583803e-10 3.515048964e-10)
(-9.689843596e-11 -7.881139823e-11 9.434839295e-11)
(1.818529332e-10 1.868392439e-10 -2.670895498e-10)
(4.921075723e-10 2.624460152e-10 -1.205630437e-10)
(-1.363489547e-10 -2.097017057e-10 -2.580162488e-10)
(1.01630346e-10 6.928459091e-11 5.178529387e-11)
(-2.758001165e-10 -1.762327454e-10 -1.11143161e-11)
(-2.176245822e-10 1.086449201e-10 -1.304258403e-10)
(1.258370732e-10 5.192924216e-10 -2.521615136e-10)
(-3.646278814e-11 2.556273984e-10 5.740137592e-11)
(-3.028827445e-11 -1.380863091e-10 2.636160004e-10)
(-1.208151526e-10 1.91398626e-11 -6.913779803e-11)
(9.744962114e-11 8.918774798e-11 -5.252162841e-12)
(8.230823668e-11 -2.163055675e-10 -2.439466891e-11)
(1.503958284e-10 3.598712235e-10 -2.558940549e-11)
(-3.696858123e-11 1.840515605e-10 -3.315636789e-11)
(3.598106007e-10 -4.812006353e-10 2.788707927e-11)
(9.460307307e-10 6.401047457e-10 -2.033912741e-10)
(4.486763058e-12 1.752694592e-10 5.497494723e-11)
(-3.756138854e-10 1.24931646e-09 3.077056467e-10)
(9.675078393e-10 -1.083179869e-09 3.026537706e-10)
(-2.344742222e-10 -4.249373602e-10 -3.926145804e-11)
(-6.988527924e-10 -2.929345137e-10 3.043582072e-10)
(1.445925256e-10 -5.22344923e-10 -1.350396105e-10)
(1.118395058e-10 -1.80780219e-10 1.108627934e-10)
(-1.36357698e-09 3.675898647e-10 4.087076466e-11)
(-4.888251372e-10 -2.938778897e-10 -1.160353494e-10)
(3.069002751e-10 -6.98728996e-11 6.734682077e-11)
(3.693739779e-10 6.427284318e-10 -3.6024586e-11)
(8.815495589e-10 -1.534571944e-09 -6.836607917e-11)
(-1.241997933e-10 -6.941159598e-11 1.310055334e-10)
(-7.150473885e-10 -6.678697459e-11 -6.223556196e-11)
(4.843134953e-10 9.218986278e-11 7.975732349e-11)
(-1.686148714e-11 9.985812659e-11 -3.477110163e-10)
(-2.205793675e-10 -5.95917016e-10 4.214451315e-11)
(-1.596980687e-10 7.433621397e-10 7.484728618e-11)
(-2.839028547e-10 7.67679468e-11 -6.298667288e-11)
(1.305476977e-10 6.887189405e-11 -1.787466124e-10)
(2.172692557e-10 -1.103439482e-10 -6.536073911e-11)
(2.087808609e-11 2.545209986e-10 7.333801077e-11)
(2.17396429e-10 -7.729073752e-11 -1.090668809e-10)
(-8.163361753e-10 -2.823556885e-11 -6.112216389e-11)
(-5.085177967e-10 3.532826295e-10 -9.367084954e-11)
(7.914410078e-11 -5.453485496e-10 1.360301653e-10)
(1.654604227e-11 -1.985314128e-11 1.455832601e-10)
(-1.167659283e-10 1.045421376e-10 1.501593411e-10)
(1.143536653e-10 2.484941059e-11 -2.494783098e-10)
(3.496925854e-10 -3.332690331e-10 -4.459338827e-12)
(5.366435953e-11 -7.738843306e-11 1.023275296e-10)
(-9.039368307e-11 -2.614596436e-10 3.926255548e-10)
(-1.577384857e-10 -2.366349494e-10 -1.488292583e-10)
(-7.678195977e-12 1.466896184e-10 1.032925111e-10)
(-1.360700802e-11 9.644613816e-11 1.181264299e-10)
(1.190936634e-11 -9.62101364e-11 5.090889371e-11)
(2.460014846e-12 -1.656443735e-10 3.644167306e-11)
(-1.917198312e-10 1.738722629e-10 7.741559788e-11)
(2.834681384e-10 -5.444020682e-11 1.293217537e-10)
(1.44462987e-10 2.462986344e-10 5.573316581e-11)
(-1.697624068e-11 -1.467632918e-10 1.193940375e-11)
(9.500261008e-11 1.603608864e-10 3.312619484e-11)
(-2.66756226e-10 -8.269374228e-11 -9.056936756e-11)
(4.61812517e-10 -1.219577735e-10 4.87585042e-11)
(1.105375646e-10 -4.491359196e-11 2.628770987e-11)
(1.311087377e-10 1.585853803e-10 -1.040317242e-10)
(-2.069733457e-11 6.949820695e-12 -4.458615371e-11)
(7.088030626e-11 5.091167629e-11 1.176017266e-11)
(-3.152247995e-10 5.856563907e-11 -3.253212405e-10)