/*--------------------------------*- C++ -*----------------------------------*\
  =========                 |
  \\      /  F ield         | OpenFOAM: The Open Source CFD Toolbox
   \\    /   O peration     | Website:  https://openfoam.org
    \\  /    A nd           | Version:  7
     \\/     M anipulation  |
\*---------------------------------------------------------------------------*/
FoamFile
{
    version     2.0;
    format      ascii;
    class       scalarField;
    location    "2/lagrangian/coalCloud1";
    object      ash_inchar_t;
}
// * * * * * * * * * * * * * * * * * * * * * * * * * * * * * * * * * * * * * //


2000
(
0
0
0
0
0
0
0
0
0
0
0
0
0
0
0
0
0
0
0
0
0
0
0
0
0
0
0
0
0
0
0
0
0
0
0
0
0
0
0
0
0
0
0
0
0
0
0
0
0
0
0
0
0
0
0
0
0
0
0
0
0
0
0
0
0
0
0
0
0
0
0
0
0
0
0
0
0
0
0
0
0
0
0
0
0
0
0
0
0
0
0
0
0
0
0
0
0
0
0
0
0
0
0
0
0
0
0
0
0
0
0
0
0
0
0
0
0
0
0
0
0
0
0
0
0
0
0
0
0
0
0
0
0
0
0
0
0
0
0
0
0
0
0
0
0
0
0
0
0
0
0
0
0
0
0
0
0
0
0
0
0
0
0
0
0
0
0
0
0
0
0
0
0
0
0
0
0
0
0
0
0
0
0
0
0
0
0
0
0
0
0
0
0
0
0
0
0
0
0
0
0
0
0
0
0
0
0
0
0
0
0
0
0
0
0
0
0
0
0
0
0
0
0
0
0
0
0
0
0
0
0
0
0
0
0
0
0
0
0
0
0
0
0
0
0
0
0
0
0
0
0
0
0
0
0
0
0
0
0
0
0
0
0
0
0
0
0
0
0
0
0
0
0
0
0
0
0
0
0
0
0
0
0
0
0
0
0
0
0
0
0
0
0
0
0
0
0
0
0
0
0
0
0
0
0
0
0
0
0
0
0
0
0
0
0
0
0
0
0
0
0
0
0
0
0
0
0
0
0
0
0
0
0
0
0
0
0
0
0
0
0
0
0
0
0
0
0
0
0
0
0
0
0
0
0
0
0
0
0
0
0
0
0
0
0
0
0
0
0
0
0
0
0
0
0
0
0
0
0
0
0
0
0
0
0
0
0
0
0
0
0
0
0
0
0
0
0
0
0
0
0
0
0
0
0
0
0
0
0
0
0
0
0
0
0
0
0
0
0
0
0
0
0
0
0
0
0
0
0
0
0
0
0
0
0
0
0
0
0
0
0
0
0
0
0
0
0
0
0
0
0
0
0
0
0
0
0
0
0
0
0
0
0
0
0
0
0
0
0
0
0
0
0
0
0
0
0
0
0
0
0
0
0
0
0
0
0
0
0
0
0
0
0
0
0
0
0
0
0
0
0
0
0
0
0
0
0
0
0
0
0
0
0
0
0
0
0
0
0
0
0
0
0
0
0
0
0
0
0
0
0
0
0
0
0
0
0
0
0
0
0
0
0
0
0
0
0
0
0
0
0
0
0
0
0
0
0
0
0
0
0
0
0
0
0
0
0
0
0
0
0
0
0
0
0
0
0
0
0
3.331890829e-21
0
0
0
0
0
0
0
0
0
0
0
0
0
0
0
0
0
0
0
0
0
0
0
0
0
0
0
0
0
0
0
0
0
0
0
0
0
0
0
0
0
0
0
0
0
0
0
0
0
0
0
0
0
0
0
0
0
0
0
0
0
0
0
0
0
0
0
0
0
0
0
0
0
0
0
0
0
0
0
0
0
0
0
0
0
0
0
0
0
0
0
0
0
0
0
0
0
0
0
0
0
0
0
0
0
0
0
0
0
0
0
0
0
0
0
0
0
0
0
0
0
0
0
0
0
0
0
0
0
0
0
0
0
0
0
0
0
0
0
0
0
0
0
0
0
0
0
0
0
0
0
0
0
0
0
0
0
0
0
0
0
0
0
0
0
0
0
0
0
0
0
0
0
0
0
0
0
0
0
0
0
0
0
0
0
0
0
0
0
0
0
0
0
0
0
0
0
0
0
0
0
0
0
0
0
0
0
0
0
0
0
0
0
0
0
0
0
0
0
0
0
0
0
0
0
0
0
0
0
1.95227801e-19
1.230862611e-19
1.854230321e-19
6.355625089e-19
2.943243181e-19
8.518590001e-20
6.199586562e-20
9.964793301e-20
9.347751135e-20
8.26422513e-20
1.116092967e-19
6.34468235e-20
5.548549638e-20
1.787140517e-20
6.354584599e-20
8.162008185e-20
5.690365988e-20
8.942820705e-20
1.135288328e-18
1.758647177e-17
1.392546273e-17
2.171813529e-15
2.501139811e-17
5.089147881e-16
1.545679813e-19
6.365388027e-17
6.781724613e-18
3.350518938e-19
1.919179335e-17
7.4447863e-18
5.325476187e-15
1.281799588e-17
7.323209156e-19
7.959891212e-18
1.041659896e-19
0
0
0
0
0
0
0
0
2.650825984e-21
0
0
0
0
0
0
0
0
0
0
0
0
0
0
0
0
0
0
1.190396466e-19
8.956057893e-20
4.011365327e-20
1.100451048e-19
2.662360641e-19
2.19588028e-19
3.280103944e-20
2.445923772e-19
2.071491019e-19
3.707999658e-20
1.519712447e-19
1.433454362e-19
6.696478543e-19
3.726034909e-18
3.285472763e-17
1.948264864e-15
1.310788846e-16
1.498646414e-18
3.176843697e-16
3.666503745e-15
1.017257865e-14
1.885886161e-16
8.538914519e-06
7.48608637e-17
3.378619213e-18
0
0
0
0
0
0
0
0
0
0
0
0
0
0
0
0
0
0
6.893410379e-20
0
0
0
0
0
0
0
1.542388945e-19
1.095877278e-19
6.168059918e-19
1.537201738e-19
1.530363672e-19
2.539717022e-20
1.274203811e-19
6.552003727e-20
1.643843446e-20
7.040702432e-20
4.144426177e-18
4.083558497e-16
4.468435742e-16
1.186770187e-16
8.600234104e-17
3.599730117e-20
1.563080853e-18
3.570149579e-19
4.296867686e-17
1.892535741e-18
1.845873359e-18
6.938509374e-19
2.837141409e-17
9.742163741e-19
4.558464944e-06
1.008095986e-05
4.881991467e-06
7.853253209e-06
5.586185767e-06
9.696228047e-06
9.104007177e-15
8.106829483e-06
3.43316828e-08
6.786430471e-06
6.882561906e-19
0
0
0
0
0
0
0
0
0
0
0
0
0
0
0
0
0
9.418744157e-23
0
0
0
0
0
0
0
0
0
0
0
0
0
0
0
0
0
0
0
0
5.898366551e-19
8.454659353e-20
5.266199328e-20
5.232978461e-20
4.910876354e-19
6.077636137e-19
8.08111356e-20
5.580130177e-20
2.509178582e-20
5.623906998e-20
3.008629966e-18
1.620343715e-19
1.603330678e-19
1.958452311e-19
2.467216216e-19
1.173794588e-19
1.774176156e-19
8.252729659e-20
1.749618683e-19
1.39031052e-19
8.050750528e-20
1.326305124e-18
2.679249851e-15
6.611956697e-17
2.657422652e-15
6.369258404e-17
3.433168294e-19
3.040752265e-18
2.971864682e-16
3.105698796e-17
1.376982968e-16
7.260561241e-20
1.437887407e-19
2.589888763e-16
1.669331012e-16
2.831512844e-16
4.160310674e-16
7.22879789e-17
2.365108643e-15
0
2.821412984e-21
0
0
0
0
3.281080693e-20
0
0
0
0
0
5.409225099e-20
0
0
0
0
0
0
0
0
0
0
0
0
1.586869379e-19
2.267261853e-20
3.735018931e-20
3.492228001e-20
3.42363442e-20
2.507224578e-20
3.618030557e-20
1.364712276e-19
6.242842894e-20
5.185757372e-20
1.018293253e-19
1.261054338e-16
2.835301762e-17
4.953197864e-17
6.633893765e-17
2.425688036e-18
1.10032471e-16
3.010446523e-18
1.252076541e-17
6.683056796e-20
5.980899142e-18
4.426804326e-20
2.812760956e-19
9.910845124e-06
1.225301668e-17
0
0
0
0
0
0
0
0
0
0
0
0
0
0
0
0
0
0
0
0
0
1.381167804e-23
0
0
0
1.224589717e-19
9.854494219e-20
2.476919099e-20
1.106937895e-19
1.090368097e-19
2.352605434e-20
1.296045698e-19
1.028333287e-19
1.13027635e-19
4.410091022e-20
6.82123738e-20
1.626417655e-19
7.847757008e-16
5.634198094e-17
3.652652199e-17
4.978054568e-18
2.502786114e-17
1.844207733e-17
3.776205768e-19
3.650295505e-19
9.036310013e-18
2.373472821e-15
4.365000101e-17
2.534651666e-16
4.355161913e-19
5.198386025e-16
9.955672884e-06
9.064388106e-06
0
0
0
0
0
0
0
0
0
0
0
0
0
0
0
0
0
0
0
0
0
2.910590719e-23
0
0
0
0
0
0
0
0
0
0
0
3.636408597e-19
1.34262981e-19
3.064698682e-19
1.162284294e-19
2.840399762e-19
3.002396821e-19
1.263811938e-19
7.415065797e-20
1.09817914e-19
1.416719011e-17
1.1303977e-19
5.151076152e-19
4.593433117e-19
3.47037995e-19
3.307390462e-19
3.461588801e-20
5.567661295e-19
5.677727631e-19
2.832719895e-19
4.189652142e-20
8.597292758e-18
4.37325996e-16
8.874751795e-19
1.921528429e-19
8.085768595e-06
1.391831639e-16
1.606132675e-16
1.412365079e-18
2.919006862e-16
1.080339931e-17
3.25379472e-18
1.866162325e-15
9.126443678e-19
1.283904146e-16
3.645762215e-17
7.33661051e-19
0
0
0
0
0
0
2.449306711e-20
0
0
5.20967884e-20
0
0
0
0
1.622631962e-19
0
0
0
0
0
0
0
0
0
0
0
0
0
4.091750749e-19
4.040753242e-20
4.330374843e-19
3.533599383e-19
7.068433847e-20
6.677730912e-20
7.297825955e-20
5.38026401e-19
9.541258e-20
1.541284916e-19
8.120558791e-06
1.875110493e-17
1.140630546e-16
4.047007404e-06
8.421809005e-20
1.267333339e-15
2.31859701e-19
5.316434674e-18
2.299660696e-06
1.545266547e-17
4.58547646e-19
3.826739871e-15
2.071913245e-15
0
2.397719022e-20
0
0
0
0
0
0
0
0
0
0
0
0
0
0
0
0
0
0
0
0
0
0
0
0
0
0
2.630008196e-19
2.328501106e-19
9.712336542e-20
1.49902421e-19
9.852115698e-19
1.014690748e-18
1.543317981e-19
1.46169087e-18
1.196783763e-18
1.976257318e-20
6.17211328e-20
2.822527921e-19
2.318408319e-21
6.601961007e-20
4.89870268e-20
1.316095344e-17
4.912477815e-19
5.08536446e-15
1.115888405e-18
7.624435016e-17
1.930177099e-16
4.106425701e-18
1.345221079e-18
8.931467325e-17
9.115705776e-20
4.758875617e-17
3.59773795e-06
5.181066971e-10
8.84848647e-06
6.039694149e-06
5.457095966e-06
6.012658425e-07
1.87523206e-06
3.239824716e-14
5.579141378e-07
7.114230151e-06
1.639783606e-06
5.666370964e-13
8.698763627e-06
0
0
0
0
0
0
0
0
0
0
0
0
0
0
0
0
0
0
0
0
0
0
0
0
0
0
0
0
0
0
0
0
0
0
0
0
0
3.642730619e-20
5.666316145e-20
1.526480196e-19
1.787966976e-19
3.402424269e-20
5.845438809e-20
4.14675345e-18
3.398349647e-20
3.563965038e-19
1.242180236e-19
1.477937286e-19
1.567235281e-19
3.117457213e-18
2.724273071e-20
4.176661707e-19
6.614780852e-20
6.952349867e-19
4.112803654e-19
1.595115172e-09
1.786615209e-15
4.61668415e-19
3.289485011e-17
8.937583644e-19
9.775993385e-18
4.524599578e-16
1.030536191e-19
2.304473164e-19
8.647060752e-17
9.342470031e-17
1.355254547e-15
2.746893757e-16
2.230666992e-18
3.352305383e-17
4.362114085e-20
6.653445429e-15
1.109088017e-16
1.152697051e-17
0
0
0
0
0
0
0
0
0
0
0
0
0
0
0
0
0
0
0
0
0
0
0
0
2.858053614e-19
1.922784628e-19
8.127352025e-20
3.077394848e-19
2.607725168e-19
2.596572936e-19
5.123909229e-19
8.981200439e-20
6.810165702e-20
4.7248205e-19
3.463485567e-19
2.408788066e-19
2.127795229e-19
3.147412751e-19
2.228338555e-19
4.601365938e-19
3.790375348e-16
7.725631273e-15
4.357832085e-17
1.571225971e-17
4.93300263e-18
8.874601434e-18
1.213777922e-18
3.445023603e-15
3.844417498e-16
2.697761196e-17
9.799143577e-19
7.89807267e-06
0
0
0
0
0
0
0
4.817745632e-20
0
0
0
0
0
0
0
0
0
0
0
0
0
0
0
0
0
0
1.414391722e-20
3.812879514e-19
1.240945091e-20
1.157325285e-19
6.601301796e-20
3.5344361e-20
7.318777204e-20
1.675638217e-20
1.447923332e-19
2.521239837e-20
1.800139818e-19
1.365224452e-19
2.029010704e-20
5.554024734e-18
5.141412751e-19
1.605505383e-16
4.334238211e-18
5.092263577e-17
1.910744238e-18
9.555734555e-19
5.147988487e-19
2.60680312e-16
3.636937867e-15
5.63134444e-18
1.193120798e-17
9.729562111e-06
7.347941874e-06
9.417835388e-07
6.550267673e-07
5.533006138e-06
3.249592379e-13
9.851672548e-06
9.855220862e-06
9.64512825e-06
9.935919906e-06
9.562306835e-06
9.694368671e-06
9.678418598e-06
9.67661327e-06
9.654755596e-06
9.837614366e-06
9.724179851e-06
9.636833447e-06
9.863548312e-06
9.863706345e-06
9.641903195e-06
9.615910095e-06
8.185763197e-06
9.8127427e-06
9.821045575e-06
7.978017585e-06
2.368163716e-06
9.843051135e-06
9.583789748e-06
9.680404361e-06
7.885574275e-06
2.404319731e-06
9.628094414e-06
9.533377515e-06
9.544867442e-06
9.6946469e-06
9.61249623e-06
9.63141934e-06
9.521494813e-06
9.534177528e-06
9.642465414e-06
9.635453339e-06
9.488019959e-06
9.51026632e-06
9.590314376e-06
9.504121671e-06
9.518588941e-06
9.593231642e-06
9.626034876e-06
9.538473918e-06
9.536617979e-06
9.488168744e-06
9.613854218e-06
9.540293862e-06
9.545074596e-06
9.474170261e-06
9.510603521e-06
9.588532844e-06
9.628611514e-06
9.824886448e-06
9.811391234e-06
9.855719588e-06
9.735463193e-06
9.636941295e-06
9.806943072e-06
9.882217382e-06
9.69932725e-06
9.852570548e-06
9.783958608e-06
9.668874438e-06
9.849336984e-06
9.846931112e-06
9.656147764e-06
9.665443913e-06
9.617744254e-06
9.610516966e-06
9.644917774e-06
9.652333405e-06
9.626480591e-06
9.633657575e-06
9.735588088e-06
9.58740392e-06
9.649871596e-06
9.656591062e-06
9.618228891e-06
9.593864235e-06
9.624647384e-06
9.575670299e-06
9.661578017e-06
9.635654361e-06
9.654768715e-06
9.610038319e-06
9.659085686e-06
9.830119449e-06
9.707481818e-06
9.833550034e-06
9.847290787e-06
9.72188724e-06
9.681263324e-06
9.727792053e-06
9.84691381e-06
9.859416105e-06
9.88101828e-06
9.709181536e-06
9.749938531e-06
9.686401363e-06
9.893166185e-06
9.76926886e-06
9.853309369e-06
9.854157294e-06
9.826689308e-06
9.597594328e-06
9.629546789e-06
9.638940515e-06
9.630604773e-06
9.738808232e-06
9.639881756e-06
9.625493415e-06
9.647568541e-06
9.644154006e-06
9.567550629e-06
9.732966782e-06
9.681246036e-06
9.677202475e-06
9.653047239e-06
9.610552949e-06
9.903365479e-06
9.665213584e-06
9.830232226e-06
9.839174835e-06
8.748186114e-06
9.620574177e-06
9.836863788e-06
9.652458603e-06
9.78891135e-06
9.824820775e-06
9.606110947e-06
9.79214952e-06
9.665590222e-06
9.874799853e-06
9.663136421e-06
9.996151248e-06
9.994271033e-06
9.838405418e-06
9.785974338e-06
9.858627761e-06
9.85475567e-06
1.579119011e-06
9.820775585e-06
9.839742934e-06
9.66789059e-06
9.839869135e-06
9.654123221e-06
9.657671949e-06
9.633811632e-06
9.674452931e-06
9.553389663e-06
9.566897537e-06
9.652984174e-06
9.633336842e-06
9.549303321e-06
9.615502686e-06
9.634002386e-06
9.565493534e-06
9.564162908e-06
9.628389258e-06
9.568159576e-06
9.620024698e-06
9.604820574e-06
9.579375767e-06
9.643769768e-06
9.813640496e-06
8.735355758e-06
9.734373803e-06
9.786727245e-06
1.001866871e-05
9.891510237e-06
9.628210726e-06
9.795956641e-06
9.816919504e-06
9.639899478e-06
9.838365427e-06
9.594652689e-06
6.952377231e-06
9.586079338e-06
9.839025303e-06
8.681828568e-06
9.635023022e-06
4.987134239e-06
9.852590786e-06
9.803815163e-06
9.751258106e-06
9.697820948e-06
9.872914415e-06
9.763884048e-06
9.607052484e-06
9.72555879e-06
9.665345638e-06
9.663746983e-06
9.611401218e-06
9.635805626e-06
9.630424458e-06
9.611222061e-06
9.664471697e-06
9.709708207e-06
9.58909025e-06
9.594030188e-06
9.620770203e-06
9.661477074e-06
9.77134419e-06
9.64824449e-06
9.775085835e-06
9.824397847e-06
9.83654947e-06
9.659246579e-06
9.693302262e-06
9.835634331e-06
9.815549989e-06
9.692739217e-06
9.838229322e-06
9.837228172e-06
9.721938517e-06
9.672410946e-06
9.802517064e-06
9.71812089e-06
9.655758138e-06
9.612220159e-06
9.573167707e-06
9.683765405e-06
9.590340018e-06
9.608417985e-06
9.753551881e-06
9.659488686e-06
9.628060854e-06
9.589711413e-06
9.640613404e-06
9.611103069e-06
9.649638161e-06
9.728988007e-06
9.570696186e-06
9.618200171e-06
9.580213721e-06
9.58132427e-06
9.742854107e-06
9.77461585e-06
9.733506163e-06
8.423693615e-06
9.897735196e-06
9.727085792e-06
9.717668303e-06
9.886762426e-06
9.785203435e-06
9.66260836e-06
9.861468875e-06
9.851477801e-06
9.909286455e-06
9.918097716e-06
9.782154614e-06
9.809485834e-06
9.80609815e-06
9.910017868e-06
9.855177555e-06
9.645627361e-06
9.860846616e-06
9.660727427e-06
9.60994854e-06
9.867016762e-06
9.665246546e-06
9.688182769e-06
9.580614459e-06
9.78468843e-06
9.643695962e-06
9.838122779e-06
9.997606731e-06
8.282763853e-06
9.605298623e-06
9.695226506e-06
9.628341235e-06
9.679579113e-06
9.680965728e-06
9.613582039e-06
9.730540635e-06
9.726134835e-06
9.699879046e-06
9.582545912e-06
9.607888647e-06
9.603629362e-06
9.560218071e-06
9.60805531e-06
9.605975801e-06
9.62547275e-06
9.567719323e-06
9.596470492e-06
9.620008789e-06
9.584738227e-06
9.636216793e-06
9.616459829e-06
9.594241304e-06
9.578371478e-06
9.578775039e-06
9.649968911e-06
9.646498304e-06
9.570115557e-06
9.541917941e-06
9.608557573e-06
9.566463975e-06
9.797914057e-06
9.667296777e-06
9.722090035e-06
9.637231928e-06
9.823129565e-06
9.779299271e-06
9.78985782e-06
9.792707845e-06
9.745499875e-06
9.185387556e-06
9.723421244e-06
9.799844094e-06
9.688324749e-06
9.86252259e-06
9.759235057e-06
9.592173701e-06
9.652473053e-06
9.636817966e-06
9.644441197e-06
9.561154701e-06
9.605959176e-06
9.566888396e-06
9.617288915e-06
9.630222304e-06
9.581717495e-06
9.566576314e-06
9.606289803e-06
9.671071205e-06
9.704442154e-06
9.664309936e-06
9.679503419e-06
9.655804295e-06
9.710521794e-06
9.721971199e-06
1.000026742e-05
1.00035416e-05
9.648104526e-06
9.854367437e-06
9.814317061e-06
9.845815335e-06
9.730073878e-06
9.864318509e-06
9.897574878e-06
9.699302265e-06
9.795345041e-06
9.875943739e-06
9.806284566e-06
9.661154396e-06
9.645873279e-06
9.736861925e-06
5.626406659e-06
9.727987595e-06
9.687723024e-06
9.632631104e-06
9.549881053e-06
9.601571757e-06
9.604045309e-06
9.625312259e-06
9.629442421e-06
9.676849336e-06
9.766003127e-06
9.650936247e-06
9.678365336e-06
9.635389914e-06
9.591977047e-06
9.622444681e-06
9.590860057e-06
9.613718181e-06
9.61420455e-06
9.621556425e-06
9.681343773e-06
9.613110647e-06
9.624878888e-06
9.591985553e-06
9.83976856e-06
9.63837142e-06
9.842086351e-06
9.670512212e-06
9.809267674e-06
9.825542842e-06
9.641025869e-06
9.664248545e-06
9.646087921e-06
9.632091273e-06
9.784926077e-06
9.835368965e-06
9.618356592e-06
1.002256924e-05
9.65204947e-06
9.851192932e-06
9.790621471e-06
9.641956156e-06
9.673704326e-06
9.685584069e-06
9.883430021e-06
9.835068488e-06
9.627380897e-06
9.797009734e-06
9.889634767e-06
9.709986614e-06
9.716656192e-06
9.878825311e-06
9.900798184e-06
9.590836626e-06
9.628959103e-06
9.595656655e-06
9.616333948e-06
9.61652759e-06
9.576457375e-06
9.616344734e-06
9.609902707e-06
9.587813339e-06
9.59133471e-06
9.581653959e-06
9.624208469e-06
9.656582459e-06
9.576900131e-06
9.668034402e-06
9.664651255e-06
9.566638592e-06
9.600990918e-06
9.667075702e-06
9.686193308e-06
9.82723357e-06
9.861242378e-06
9.685422372e-06
9.723648682e-06
9.921959912e-06
9.700666893e-06
9.890878021e-06
9.621407948e-06
9.867060372e-06
9.696300027e-06
1.001366948e-05
9.862570038e-06
9.69134128e-06
9.762901949e-06
9.883443546e-06
9.869247874e-06
9.858652788e-06
9.704149092e-06
9.787313013e-06
9.665404408e-06
9.607681511e-06
9.65047611e-06
9.708518922e-06
9.702911533e-06
9.648538493e-06
9.696315269e-06
9.675250584e-06
9.653055395e-06
9.659632206e-06
9.651526999e-06
9.686312534e-06
9.696928484e-06
9.581434068e-06
9.785086274e-06
9.73428197e-06
4.019339157e-06
9.659052378e-06
9.826752584e-06
9.437093792e-06
9.629810485e-06
9.771968483e-06
9.824494763e-06
9.925348363e-06
9.839606404e-06
9.711183073e-06
9.563503681e-06
9.775807258e-06
3.305887855e-06
9.864575914e-06
9.69160063e-06
9.68201934e-06
9.553544778e-06
9.62967463e-06
9.580579884e-06
9.650942342e-06
9.662791271e-06
9.628249654e-06
9.610626342e-06
9.53516435e-06
9.578459276e-06
9.574691722e-06
9.569617098e-06
9.709378838e-06
9.526446199e-06
9.592233172e-06
9.857666559e-06
9.729622623e-06
9.594050094e-06
9.596989963e-06
9.836665005e-06
)


// ************************************************************************* //
