/*--------------------------------*- C++ -*----------------------------------*\
  =========                 |
  \\      /  F ield         | OpenFOAM: The Open Source CFD Toolbox
   \\    /   O peration     | Website:  https://openfoam.org
    \\  /    A nd           | Version:  7
     \\/     M anipulation  |
\*---------------------------------------------------------------------------*/
FoamFile
{
    version     2.0;
    format      ascii;
    class       scalarField;
    location    "2/lagrangian/coalCloud1";
    object      cumTime;
}
// * * * * * * * * * * * * * * * * * * * * * * * * * * * * * * * * * * * * * //


2000
(
175.6688
180.27985
178.3924625
179.55315
180.33035
182.0407
180.8414
178.05
178.5294625
179.0159625
176.403
175.09675
179.4376
175.1414
178.2994
182.3077
179.50075
176.1355
176.17705
179.7203
173.8749
179.0974
179.338
181.1581
173.6034
178.0729
177.4483
176.13305
176.0713625
175.9443
177.2435625
175.0597
176.5816625
178.1537625
176.2653625
174.3594
174.6174625
177.5864625
174.5307
174.89775
173.7608
174.0122
176.19785
175.16255
174.8340625
178.0996625
176.1571
175.2696
174.5754625
172.9314
174.57755
174.8746625
176.72065
174.6357625
174.2952625
173.401
173.3347
173.96555
174.0558
173.38
173.2693
174.03385
175.22815
174.6144
174.8763
175.9041625
173.471
178.2122625
174.5744
172.8111
173.83205
173.9434625
174.4052625
174.42885
173.3138
172.61675
173.5821625
173.6497625
175.1222
175.3385
175.7982
172.9967
176.97335
178.6016
180.3382
180.6639
178.6175
178.71085
178.3563
181.2309625
176.5803
177.08635
179.4772
177.0568
181.37255
178.34885
178.1174625
177.5934625
176.0722
177.01265
177.4416625
175.49035
176.0490625
175.9009
176.2194
177.3973625
177.3321
178.1717
177.58335
177.0145
178.0013
175.6169625
176.62615
175.40015
177.1019625
174.6344
174.98805
175.2255
176.26235
177.2236
175.7745625
177.6091625
175.35625
175.4178
176.66775
174.2294
174.9872
174.1875
174.8586
178.20175
175.2475
174.2076
173.1585
174.6816
174.6799625
174.8138
174.70165
179.71695
175.077
181.568
179.7797
179.25
181.7534625
179.35045
180.6317
176.0939
178.45505
181.0589625
180.0138625
178.8453625
178.9696
179.1379625
177.70635
178.98485
177.9988
175.6166
177.5624
175.2456
176.9916625
176.0285625
175.7989
177.6827
178.20275
176.5579
174.8135
178.0245625
177.0185625
175.5324625
175.03595
176.114
175.9459625
176.3333
175.20835
176.32985
176.3082
174.9191
176.99165
175.9694625
176.2402
173.87495
178.2129625
175.0127
174.59425
176.4921
177.24205
177.7049
173.67015
175.3584
175.8384
176.07205
172.6795625
173.9413
175.3372625
173.76315
179.8033
180.6488
181.7002
175.4426
180.0892625
178.34515
181.5588
179.6054625
176.6709625
177.2688625
176.90055
175.6633
180.1325
178.2667
180.3920625
178.2894
177.597
180.3632
179.5984
181.919
179.5424625
175.98835
176.0726
176.1561625
175.46705
177.61155
175.8383
177.0817
173.6035625
173.761
175.6842625
175.8167
173.6243
174.6611625
176.38175
174.4712625
176.78595
174.23055
176.1768
176.7865
175.5753
173.291
173.9665625
176.6054625
175.29365
174.7020625
173.8075625
174.2748
173.4030625
173.0642
173.71375
175.0997
173.18275
173.6484
174.0549
174.37895
172.7464
177.7064
175.6398
173.2512
174.2532
173.092
175.8167625
174.09845
173.0002
172.9758
172.1382625
174.4679
173.58125
173.6047
172.7458625
173.8114
173.185
172.78935
176.43165
172.4642625
174.16835
173.1824625
179.8809
180.84935
177.2887
178.6376625
176.2621
179.9019
181.8609625
177.88295
178.1324
178.3524625
179.71255
179.4407
180.9191625
177.8811625
179.1503625
175.1836
181.8112625
178.0932
178.00025
176.0961625
175.88235
176.8589
178.1725625
177.6784625
177.4694
177.9777625
177.6309
178.202
178.0436
175.9900625
174.2499
174.5326625
175.0581625
177.1565625
174.5314
175.7038625
178.1911625
176.2881
177.51625
175.7063
176.1147
174.2917
175.2259
173.8519625
174.9635
173.448
176.5167625
172.1158
174.76845
173.6736625
174.79165
173.7362625
175.0398
173.7601625
174.9182625
172.70125
175.5325
173.1581
177.831
180.8004625
177.81655
179.50685
176.2868
180.539
178.83875
178.6027
176.5148
179.4222
179.4968625
177.37505
181.64715
177.8004625
178.9658625
178.4403625
176.3798
175.52965
177.1038
176.6252625
177.4269
177.0355625
176.7646625
175.72705
176.1354
177.3986
177.0361
177.8593
178.2106
174.01095
177.1283
175.9494
176.80955
173.85135
175.44315
177.17675
177.2224
177.635
175.774
176.179
175.8823625
177.6628625
174.3373
177.7553625
173.60205
175.50805
173.7139
176.8091
176.94595
177.3341
174.65825
175.57625
174.2734
174.8346
172.8584625
174.5748
175.0795625
176.51335
176.0103625
179.0844
175.0017
175.6425
181.27245
179.2922
178.4513
177.4713625
180.16735
182.5872
177.35375
180.3964
177.9363
178.96825
178.8591
176.7145625
181.0101
180.8387
175.94695
174.7496
176.8336625
180.9125
177.0612
180.0901625
175.2729
175.9695
174.9394
174.8984
174.1221
175.1428625
174.7463625
177.4913
174.4892
175.5519
174.5923
176.9904
174.50965
176.88295
175.18165
173.9195
177.82845
176.9252625
177.75505
177.3957
176.21955
174.24935
174.0552625
175.8610625
174.2296
178.2095
176.6936625
176.40265
174.0768
175.5095
175.1637
175.4425625
177.2457
174.7058
174.2093625
176.9011
174.792
177.44585
174.72435
174.31365
175.24475
174.9616
175.0117625
174.33685
173.0881
175.379
173.1813
174.771
176.05345
172.9077625
173.3135
174.2533625
173.31405
173.518
174.3147
174.0804
175.8393625
175.01245
174.5556
180.4621
176.43605
175.48415
178.5408
182.1251625
176.7373
180.0253
181.3417
179.0233625
177.03375
182.46045
178.1756
175.7497
178.1905
181.048
178.1292
175.5949
174.8564
177.88135
177.9773
177.9555
176.8783
177.3749
176.60265
176.8766625
176.0493
176.3538625
172.8353
177.3114
176.5136
172.3984
177.0591625
177.4207
175.86
175.68175
174.7922625
176.0306
175.79775
175.2251625
176.008
175.81755
174.87595
175.4285
174.5533
173.22875
175.6618
174.55255
175.07885
177.42015
174.7265
177.9604
178.11125
177.08045
179.2299
180.0813
179.7453
180.8521
178.7917
179.1967
179.6606625
179.05785
180.2716
177.6574
183.37725
181.0294625
175.6618625
178.553
176.6234
176.1977625
177.5523
176.7607
175.8603
177.46595
176.6473
178.15285
176.7386625
176.1364625
177.26605
176.1134625
176.0083
175.1845625
176.85795
177.9082625
176.00785
177.4196625
175.4194625
173.4927625
175.42165
175.6172
173.44625
175.05845
175.5298
172.8842
177.54025
175.6407
177.8073
176.3322
174.1225
176.4282
175.12135
176.1537
173.40265
174.81475
175.1602625
174.12325
175.3156
174.1894
173.94675
175.469
180.81545
175.31515
177.4097
181.0378
180.6345
180.4968
181.56875
174.9204
176.2725
179.0857
175.4422
179.9333
181.6582
175.75045
179.1746625
177.5626
179.12605
179.6747
176.53755
181.10055
177.8027
180.3286625
176.2414625
179.3496
173.9422
173.69065
176.2661
177.93385
177.3518625
173.78405
173.6911625
174.67735
174.337
176.83685
174.3791
175.85935
174.4882
175.2942625
175.4024625
176.197
177.3794625
175.2059625
175.7505
174.0342
174.1004
175.5546
174.1231625
174.85495
173.9881
174.5109625
172.9979625
176.4934625
175.9277
178.1327625
174.9723625
175.8227
174.44535
173.92185
175.4671
175.3992
174.4904625
174.5933625
172.554
173.8532
172.5315
172.7012
173.25055
175.1218625
174.4456625
172.6361
173.4252625
173.7418
173.04055
171.9776
174.0348625
173.13985
175.2078
172.6571
172.2877
177.63405
172.90915
175.2959
172.7001
178.498
176.15535
180.4804
177.8546
179.0117625
179.4107
178.3317
177.308
178.7546
176.11845
180.0817
179.6034
176.9773
181.43785
179.6900625
180.1863
179.18685
178.2659625
175.904
177.8301625
176.0291
177.9356
177.8824
176.64725
175.1852
176.3812625
178.02115
175.9259625
178.1918
177.7291
176.557
174.61465
176.6923
175.6858
176.92295
176.7401
178.0217
175.3155625
173.42785
173.6739
176.9701625
176.3122
176.5835
175.4666625
175.33455
177.9295625
172.9771625
175.776
175.4854
173.73695
175.83855
174.5111
173.11125
173.5172
175.1617
175.5775625
178.09845
177.7286
182.3322
177.8589
176.7345
179.3475625
177.50215
175.7496625
180.8707
179.6063
177.9085
181.5408625
178.1804625
176.3299625
179.3215625
181.5555
181.0901625
177.0581
177.90725
177.9072
175.358
175.9701
176.4502
174.8588625
173.9667
175.2471625
174.20605
174.3583625
177.1763
174.7457
176.3548
176.55625
175.55295
173.8965625
174.48925
175.5115
174.1924625
173.8306
174.8756
177.471
176.0528
175.2057
175.1428
177.2652
174.63905
173.9656
174.0107625
175.71255
172.81145
177.6389625
174.35895
174.1
172.5526625
173.8774
176.23955
173.4493625
172.5308
173.5615625
173.6487
172.4226625
173.1587625
171.8427
171.731
173.5157625
173.20615
171.9538
172.4434
173.7834
172.0738
174.83635
171.5955625
172.574
172.1842625
173.3846
170.6528
173.4728625
171.48465
172.9571
174.9183
171.1564
171.091
174.4732
173.81175
173.9240625
172.51005
171.31545
176.93
171.6189625
170.1682
172.57565
173.2123
174.2738625
170.775
172.6789
171.6192
171.1353625
171.1788625
172.0742625
170.6544625
170.7564
170.02645
170.9124625
170.7980625
171.1150625
171.0275
170.8204625
171.57415
169.6654
171.5525
170.4848
173.3613625
173.00335
170.8429625
168.8467
172.1432
170.1216625
169.3545
170.8675
169.1352625
169.92
169.6665
169.1122
168.9574625
169.221
172.7239625
173.53845
173.09045
175.7288
174.149
174.1669
171.97835
174.7911
172.3541
174.53195
172.2462
172.0238
173.16005
173.4491
175.381
172.00035
175.61965
172.6402
172.5752625
174.423
173.5411
171.66485
172.2034
170.9332625
171.5287
171.3583625
172.2238
171.5957
170.26925
171.7998
171.4637625
172.1621625
170.1872625
171.15845
172.5962
173.62815
170.37175
171.4419625
172.1212625
173.8992
171.5517
174.3823
170.6952
169.5567
170.5502
170.48495
171.9088625
171.2676625
173.65255
169.8357625
169.6445
173.29385
170.8435
174.4238625
178.20885
176.0979
176.539
173.2062
174.8967
172.5089625
173.06755
172.9082
172.0007
174.7237625
171.9762
174.6796
173.7885
174.6374
174.4483
173.2931
174.3381625
173.98695
174.0114
172.2039625
175.3815625
173.1363
173.6722
172.3336
175.08
171.5294
172.5973
170.7115625
171.4049
172.2901625
176.09425
172.7712
172.4899
175.1011
171.9539625
174.3208625
170.39435
170.4619625
171.0037
174.0836625
172.7235
170.6726
171.0484625
170.16685
171.4439
171.3150625
170.8184
170.73375
176.35545
170.4296625
169.2438625
171.4042
170.2307625
168.9038
171.0950625
171.24625
171.6439
169.7368
168.98125
171.2017625
172.76625
173.27085
173.4939
173.2518
174.2125
173.3817625
173.0661
172.7468
173.7136625
172.7664
174.4044
172.3773625
174.8185625
171.7304625
173.51575
172.3558625
172.8604
174.6201
170.98055
171.4654
171.02785
170.0035
171.8873
170.91045
173.0425
171.5939
173.38345
171.8665
170.0265
171.8634
171.84435
171.55135
171.2905
171.27
170.6128
171.5069625
171.7798
172.5131
171.4864625
170.6919
170.7136
169.5987
170.9812625
170.3531
170.5946625
170.9112
170.2893
170.57195
169.3970625
172.0966
170.5055
171.8430625
169.9843
171.95335
172.7733625
170.4864625
170.5284625
169.5775
170.4154
169.66525
169.8793
169.4641625
170.3103625
169.857
171.821
172.0261625
170.63685
169.2208
170.0493
169.9001
169.9844625
169.5807
169.5344625
171.1165
170.7564
169.3112
170.35485
172.3774
171.71085
172.55115
172.22425
172.5724
173.6931
175.6436625
172.59445
175.97105
174.9399625
174.1693625
174.2949
174.1699
170.3738
172.35525
172.6374625
171.40325
172.401
170.9348
171.7525
171.7094
174.6573
173.8314625
171.5509625
173.1112625
171.9074
173.9915
170.7351625
169.8363
172.4671
171.3381
172.5537
170.09465
175.0364625
173.2065625
169.7059625
171.3599
172.4269
170.65395
171.59595
171.0284
169.5997
171.4438
170.9803
170.5949
172.18525
172.3785
175.2752625
168.19065
169.3092
172.4432625
174.4024
177.2446
173.4738
176.2229625
176.4059
174.1467625
174.92015
175.5542625
175.64375
175.9257
173.2709625
171.64075
170.86605
172.6586625
172.5332625
172.04895
175.0982625
172.3354625
174.0361
172.24655
172.9074
172.0235
173.89755
172.67825
171.05105
171.8415
172.09745
171.0919
171.2029
176.76365
172.0524
170.6135625
174.14945
171.8848625
171.11465
171.9093
170.439
169.9621
171.5737
170.3953625
170.5488
170.4614
171.2691
171.7089
171.2033
169.9208625
169.2896625
174.3233
170.0068625
171.7112625
169.1572625
169.4218
172.9546
172.979
171.4626
173.133
173.7163
174.46715
176.7198
176.2453
173.4988
172.2487
173.0431
173.9206
172.95495
172.33375
173.2942625
171.6848
172.3111
171.00435
171.3847
172.46585
171.7336
171.18035
171.818
171.50575
172.0005625
172.7891625
171.9776625
171.92935
174.1031625
171.1351
170.5080625
172.72595
170.95735
169.9635
169.6430625
170.3952
171.34015
170.4401625
171.7986625
168.7561
171.6856
171.1158
171.2463
170.982
170.5275
171.7791
171.4878
169.6671625
170.957
170.3307625
169.39795
171.20315
169.9197
169.9409
170.7148
171.4245625
173.0455625
169.8163
169.2
169.2679
172.0026
169.9842
170.6742
169.2886
169.7086
171.3598
169.75185
169.91965
170.1906
174.93975
174.40295
172.4273
173.0197
175.3174
172.6162
173.2277
174.9413
175.0382
175.7985625
172.30915
177.33045
174.4278
173.2546625
170.84265
172.8129
171.5079
171.3805
173.8803625
171.44405
173.49575
170.3319
172.28845
172.3327
172.8155625
172.8912625
173.4271
174.18815
171.82065
170.30925
172.20805
177.8868
171.5744
171.2455
174.7734625
171.7554
171.9313
172.1191
169.2672
169.87775
171.8852
170.3124
171.07015
170.8912625
170.6345625
169.53525
171.5737625
169.48745
170.41785
172.0756
171.36145
173.9894625
173.6241625
176.4283625
172.443
175.3588625
173.6281
173.9015
173.5387
176.58165
174.5547625
176.11515
174.3795625
176.1777625
173.8511
175.2946
173.4269
172.2041
173.7877625
173.47345
173.5809
178.1172
174.9901
173.4043
171.75415
173.8318
171.77635
174.07945
172.85895
172.8362625
172.97945
171.2458625
172.509
174.2331625
171.6413625
172.9339625
170.0269
173.2287
172.6816
170.1667
172.8612
172.0513625
170.8902
173.2731
173.026
175.0688
169.13315
169.94075
169.5817625
170.79825
169.11055
169.79515
173.3384
171.144
170.8216
169.627
168.51855
169.8175
169.44185
168.9378
170.78
171.42635
169.6225625
169.2243625
168.5641
170.1313
169.2454
172.83915
171.6632
171.9291625
173.3611
172.3096
171.73015
173.0925625
172.93525
170.9112
172.7892
172.9323
174.05655
173.3157625
172.12415
172.2678625
172.6171
172.5945625
173.1182
172.26695
173.3364625
172.7251
175.4937
172.8844
172.1604
173.5616
172.1811
171.28985
170.6349
172.9576625
170.2285
171.0037
172.40215
173.3619
170.9587625
170.93505
171.9547
171.90725
171.2244625
172.65835
170.5298
170.24985
171.0733625
171.4875
170.18815
169.9423625
169.58045
171.4045625
170.4177
170.0485625
170.2497
170.4409
170.8436
171.2239
169.7973
170.28955
172.13865
170.5779
169.6873625
169.46375
170.0965
169.5557625
170.3745
168.4332625
169.77275
170.7994
168.4762
168.8929625
169.4899
168.6901
170.04915
169.4672
170.4858
169.0237
169.8617625
168.6065
173.33805
173.5406625
174.27315
172.07205
174.74905
176.4741
174.1435
177.06375
172.1822
173.1345625
175.59865
173.36095
171.79685
172.44475
173.5859
172.37655
173.0666625
171.8236625
174.5944
172.63875
172.2449625
172.42255
172.49205
173.8114
172.74835
171.3166
172.2662
172.7031625
170.2502
171.0488
171.86505
170.1678625
172.0502
171.13925
172.16335
170.2909625
171.88395
172.6210625
172.4908
171.0061625
168.49525
169.3777
172.2284
172.88425
170.3111
170.2495625
171.22475
168.29905
170.396
170.00585
170.2079
171.9304
172.02695
173.5608
172.6582
172.3105625
174.7271
172.095
174.3588
172.4051625
173.2296625
174.5104
172.0946625
171.7973
173.56065
173.0223625
173.02125
171.4223
171.5280625
174.29505
171.38085
173.1161
171.7529625
170.1204
172.1377
171.4212
172.53335
172.2230625
170.5745
171.0719
177.31165
172.4691
173.6963
170.54945
171.1584625
175.26915
170.2720625
171.61815
169.3551625
170.1435625
171.7765625
170.07165
170.22905
170.75505
172.7976
169.6208
172.8363
171.6199
169.72925
171.18
169.31155
171.5069
170.049
169.0024
169.7741
170.46375
168.6786
168.9789
168.98
168.9151
170.0716
167.7151
170.2901
167.3119
167.80005
167.47635
168.0572
168.7133
170.61755
168.2143
167.4990625
168.87095
168.7787625
167.2265
168.8253625
168.9384
167.6279
170.0088
171.1863
170.50965
169.6455
168.2557
167.5434625
167.891
168.7571
168.6519
167.2257625
167.8008625
167.7994
168.77965
170.6392
169.7341
169.3338
168.0381625
169.1371
170.74
167.2903
168.4568
168.91655
167.2262
169.1583
167.542
168.5205
169.22195
167.6963
167.7984
168.236
168.3
167.5632
168.1670625
167.8461625
167.64995
169.35525
171.0787
171.8659625
170.0963625
168.75625
169.0487
172.2891
169.8797
169.9442
168.80165
169.9007625
171.0507
169.7068
170.7337
172.36
167.7776625
168.0579
167.3528
169.89995
167.4766
168.3248625
169.4198
167.5855625
169.1792
168.9156625
170.67865
167.3526
169.1551
168.1902625
169.64465
168.10155
169.1129625
169.5113
170.2115625
168.9820625
171.09395
171.2968625
170.59615
170.52705
170.9352
169.60355
170.5505625
171.3422625
170.7568625
167.9948
169.2682625
169.17845
169.68555
172.167
169.26645
170.6745625
170.8669625
167.8943
169.0695625
167.4372
170.5081
169.0241
167.5852
171.6671625
167.37435
169.42215
169.5371
171.6641
167.4361625
171.3429
167.7364
168.8469
169.02405
168.89375
169.9634625
169.3557
168.3227
170.9647
168.34775
169.4027
170.8696
169.3966
170.21115
169.464
169.6892
170.3745625
169.0900625
168.69075
169.6007625
168.9588
168.62635
169.4865
168.3492
168.5419
169.4425
167.8215
169.0048
170.7801625
167.4985
168.2343
168.5418
167.86865
167.5239
167.3353
167.33275
169.9062
168.32535
169.24575
167.95415
167.5882
168.0815
167.3769
170.69495
169.448
167.2917
167.60645
169.2028625
168.5415625
170.1457
170.3553625
168.6497625
170.3526
168.56885
168.8491625
169.0236625
168.8726625
169.04885
169.4192625
167.9522
169.96295
169.51245
171.46695
170.7991
168.1000625
168.7135625
167.8900625
168.3695
169.2003
168.4978
169.5572
167.9533625
169.0913
167.93235
167.7174
169.7312625
168.3921625
169.70985
167.2478
169.0924
168.8026625
167.6727625
168.59015
168.67195
168.1686
168.5195625
167.29205
169.0467625
171.3158
170.0716625
169.19985
171.0283625
168.1448
169.81665
168.1006
167.22705
167.91005
170.1496
170.33455
167.4563
168.2344625
169.8168625
170.1902
170.098
167.3735
169.774
167.5642
168.7353625
168.60695
167.43385
167.3129625
167.9749
167.3962
168.0797625
167.8223
170.71575
167.4342
169.83745
167.9107
167.6950625
167.52145
170.0283625
168.1243625
170.43975
171.2272
167.67165
170.12325
168.4963625
168.0161
168.0786
168.4129625
168.5656625
169.37735
169.8582
169.1806
168.6289
169.3360625
169.15715
170.6994625
168.1231
168.4743
168.0589625
167.9960625
170.4642
168.981
168.71345
168.8036
171.68885
169.7540625
167.9324
169.1805625
169.33515
168.93765
168.6927625
168.8965
167.8228625
167.2456
167.456
167.24565
168.2571
170.3341
167.3546625
167.6496
167.56325
167.2902625
168.73755
170.2354
167.3114
168.3923
167.846
167.84515
167.5212
167.35325
167.99585
168.47605
167.9334625
167.58665
169.5166
167.6059
168.27895
167.3981625
169.5374
168.3707625
170.075
168.2783625
169.09275
171.3868625
170.8926
169.06865
171.52895
169.0027625
170.6147
169.3774
168.64775
168.3015625
168.916
171.1599
169.29145
168.7405
168.43375
167.8699
168.3018
168.6476
168.0379
167.73565
170.275
167.4135
167.8704
167.6283625
168.1
169.7525
167.9962
168.54245
167.9321
168.2806
168.6278625
167.2676625
168.39265
167.2695
169.0462
168.96165
167.7562
169.1346
168.2808
169.4422625
170.5742625
167.8476
168.45515
168.2106
168.7596625
169.243
171.6893625
171.6438
169.3121625
169.7953
167.7383
168.3468
167.8688625
168.2564625
169.00585
168.25715
167.77885
167.3332
168.3234
167.4562625
167.6075
168.4135
171.2935
167.9761
168.01735
167.4778
168.5856
167.7574
167.4163625
168.4351
167.4995
167.5218625
168.78
167.75685
170.78035
172.2716
167.6070625
167.6936
168.2111625
167.63
169.7744625
168.873
167.7359625
168.9375625
167.26655
169.7536
167.7588625
168.4562
167.9123625
167.2472625
168.23355
168.145
169.8393
168.6719
167.82105
168.3696
168.4342
167.54085
169.85855
168.21295
172.4915625
168.05785
169.62255
168.3911
167.7791
169.3793625
167.3749625
168.8268
167.3326625
168.1483625
168.0179625
167.7787
168.8728
167.50025
167.4174
168.037
168.08165
168.497
167.9547
167.39655
168.4554625
169.5139625
168.188
167.9745625
167.45605
169.1127
167.6731
168.84725
168.587
167.9108
167.5629625
168.8027
168.41415
168.123
167.69345
168.1675
168.7785
169.7954625
168.3477625
168.4760625
167.41665
170.2137
167.2673
167.31135
167.5433
168.6064625
167.7178625
168.5669
168.03645
167.6718
170.6576
168.8268
167.97485
168.6078
168.6703625
170.596
171.27065
168.6933
169.4894625
170.14475
168.12335
168.5873625
169.6885
168.7145
169.3359
169.8803625
170.89535
168.4135
170.82065
170.2737
168.14775
167.62875
167.6522
167.6519625
169.0741
169.98875
168.82755
168.1891
168.521
168.7366
167.71585
167.88955
167.3973
168.6275
168.0217
169.2913
168.16665
169.55895
168.36995
167.4775625
169.0693
)


// ************************************************************************* //
