/*--------------------------------*- C++ -*----------------------------------*\
  =========                 |
  \\      /  F ield         | OpenFOAM: The Open Source CFD Toolbox
   \\    /   O peration     | Website:  https://openfoam.org
    \\  /    A nd           | Version:  7
     \\/     M anipulation  |
\*---------------------------------------------------------------------------*/
FoamFile
{
    version     2.0;
    format      ascii;
    class       scalarField;
    location    "2/lagrangian/coalCloud1";
    object      d;
}
// * * * * * * * * * * * * * * * * * * * * * * * * * * * * * * * * * * * * * //


2000
(
0.00840003546
0.00840003227
0.008400030938
0.008400031651
0.008400031785
0.008400032029
0.008400031525
0.008400034027
0.00840003295
0.008400034241
0.008400033196
0.008400034526
0.008400031221
0.008400033599
0.008400031173
0.008400030663
0.008400024901
0.00840003314
0.008400033688
0.008400031766
0.008400034239
0.008400031675
0.008400032099
0.008400028781
0.008400035265
0.008400032446
0.008400032192
0.008400034317
0.008400033599
0.008400032891
0.008400032773
0.008400032662
0.008400032231
0.008400030532
0.008400032986
0.008400034456
0.008400033808
0.008400031233
0.008400033501
0.008400033791
0.00840003466
0.008400034731
0.008400032656
0.008400032574
0.008400033794
0.008400030076
0.008400030573
0.00840003226
0.008400034674
0.008400035625
0.008400034373
0.008400033016
0.00840003042
0.008400034552
0.00840003373
0.008400033785
0.008400035281
0.00840003442
0.008400031698
0.008400033962
0.008400034962
0.008400032684
0.008400031784
0.00840003287
0.008400032154
0.008400031455
0.008400033587
0.008400028176
0.008400033424
0.008400030967
0.008400033493
0.008400032086
0.008400031682
0.008400032343
0.008400033632
0.008400035161
0.008400034153
0.008400031579
0.008400030683
0.008400030539
0.008400028673
0.008400033044
0.008400032995
0.008400028054
0.008400029412
0.008400031731
0.008400026485
0.008400032638
0.008400034439
0.008400028523
0.008400032999
0.008400032293
0.008400027857
0.008400032491
0.008400033382
0.008400031648
0.008400032601
0.008400032455
0.008400032277
0.008400032518
0.008400028133
0.00840003388
0.008400032545
0.008400033131
0.008400033455
0.008400032368
0.008400032413
0.008400030425
0.008400032191
0.008400031918
0.008400029592
0.008400031391
0.008400029848
0.008400033038
0.008400031854
0.008400034314
0.008400034808
0.008400030968
0.008400032195
0.008400031684
0.008400033385
0.008400031333
0.00840003355
0.008400031893
0.008400032109
0.008400032332
0.008400032092
0.00840003315
0.008400032342
0.008400026352
0.008400030329
0.008400033947
0.008400033807
0.008400032513
0.008400033161
0.008400029311
0.00840003398
0.0084000327
0.008400036305
0.00840003269
0.008400032034
0.008400031994
0.008400033622
0.008400028949
0.008400033952
0.008400035091
0.008400031509
0.008400031914
0.008400033213
0.008400032968
0.008400031241
0.008400031314
0.008400031808
0.008400030968
0.008400029869
0.008400035018
0.008400031623
0.008400034225
0.008400032629
0.008400034637
0.008400034587
0.008400032213
0.008400031754
0.008400033582
0.00840003191
0.008400032121
0.008400029865
0.008400034292
0.008400033463
0.008400032325
0.008400032275
0.008400032843
0.008400031679
0.008400032992
0.008400032762
0.008400035004
0.008400032147
0.008400032345
0.00840003342
0.008400034157
0.008400029091
0.00840003348
0.008400033005
0.008400030564
0.008400027825
0.008400029996
0.008400032743
0.008400031027
0.008400032234
0.00840003074
0.008400034119
0.008400032709
0.008400029348
0.008400033529
0.008400029843
0.008400031615
0.008400031312
0.008400035136
0.008400032182
0.008400033667
0.008400032725
0.008400032314
0.008400032455
0.008400030018
0.008400032855
0.008400033326
0.008400032457
0.008400029806
0.008400032848
0.008400033147
0.008400033601
0.008400031907
0.008400024063
0.008400030836
0.008400029854
0.008400032437
0.008400033004
0.008400033298
0.008400034439
0.008400030559
0.008400033397
0.008400032107
0.008400036199
0.00840003593
0.008400032552
0.008400033484
0.008400035338
0.008400034332
0.008400031925
0.008400034838
0.008400031238
0.008400034255
0.008400032703
0.008400031206
0.008400032001
0.008400035228
0.008400034329
0.008400031453
0.008400032882
0.008400034145
0.008400034962
0.008400033722
0.008400035108
0.008400034446
0.008400034912
0.008400033634
0.008400035091
0.00840003422
0.008400034517
0.008400033799
0.008400035385
0.008400027694
0.008400032685
0.008400035122
0.008400034606
0.008400034552
0.008400030185
0.008400034514
0.008400034811
0.008400034835
0.008400035014
0.008400034413
0.008400033965
0.008400032804
0.008400034785
0.008400031302
0.008400034225
0.008400034453
0.008400027672
0.008400035253
0.008400032921
0.008400032091
0.00840003359
0.008400031075
0.008400032911
0.008400028879
0.008400033082
0.008400032364
0.008400031209
0.008400029694
0.008400030799
0.008400031597
0.008400030371
0.008400031897
0.008400031014
0.008400031603
0.008400026779
0.008400033967
0.00840003052
0.008400030264
0.00840003162
0.008400032502
0.008400034491
0.008400032376
0.008400031143
0.008400031253
0.008400031514
0.00840003231
0.008400031127
0.008400029489
0.008400030977
0.008400026981
0.008400034755
0.008400032616
0.008400033239
0.008400031408
0.008400034154
0.008400032886
0.008400029897
0.008400032691
0.008400030305
0.008400030994
0.008400032825
0.008400033725
0.008400032354
0.008400032434
0.008400031024
0.008400032723
0.008400029023
0.00840003494
0.008400031446
0.008400030803
0.008400032413
0.008400033554
0.008400031088
0.008400032787
0.008400029639
0.008400034218
0.008400031029
0.008400034545
0.008400027687
0.008400031239
0.008400031683
0.008400033187
0.008400033215
0.008400033952
0.008400028643
0.008400034108
0.008400033724
0.008400033234
0.008400033764
0.008400032795
0.008400031144
0.008400020794
0.008400027411
0.008400028638
0.008400031799
0.008400031808
0.00840003233
0.008400031304
0.008400030578
0.00840003342
0.008400032447
0.008400032373
0.008400033315
0.008400031356
0.008400032627
0.008400032429
0.008400031365
0.00840003643
0.008400031207
0.0084000319
0.008400030142
0.008400035096
0.008400034907
0.008400030288
0.008400030287
0.008400031224
0.008400031917
0.008400031977
0.008400031893
0.008400030824
0.008400034531
0.008400030451
0.008400035066
0.008400033281
0.008400034578
0.00840003029
0.008400027066
0.008400029992
0.008400031217
0.008400032815
0.008400032336
0.008400031764
0.008400034006
0.0084000325
0.00840003198
0.008400026981
0.008400030025
0.008400032027
0.008400035081
0.00840003419
0.008400027891
0.008400033865
0.008400034102
0.008400030694
0.008400034463
0.008400031361
0.008400031949
0.008400031514
0.00840003223
0.008400032717
0.00840003408
0.00840003314
0.00840002942
0.008400030563
0.008400033324
0.008400034368
0.008400033699
0.008400031864
0.008400031726
0.00840002818
0.008400034223
0.008400033145
0.008400034312
0.008400033505
0.008400034319
0.008400032234
0.008400029406
0.008400031663
0.008400034707
0.008400033721
0.00840003546
0.008400032764
0.008400034401
0.008400032401
0.008400034058
0.008400035529
0.008400029941
0.008400033113
0.008400030702
0.008400031988
0.008400034107
0.008400034199
0.008400034912
0.008400032243
0.008400034457
0.008400029669
0.008400030818
0.008400032249
0.008400033556
0.008400031156
0.00840003255
0.008400032957
0.008400030159
0.008400033911
0.00840003446
0.008400032006
0.008400032959
0.008400031667
0.00840003198
0.008400031161
0.008400034387
0.008400034256
0.008400032368
0.008400030817
0.008400033273
0.008400030531
0.008400033841
0.008400029932
0.008400032912
0.008400033418
0.008400033119
0.008400029782
0.008400033536
0.008400031606
0.008400032714
0.008400031196
0.008400030611
0.00840003178
0.008400030051
0.008400030175
0.008400027673
0.008400034615
0.008400033297
0.008400031274
0.008400033223
0.008400033581
0.008400032058
0.008400032007
0.008400032969
0.008400030991
0.008400032177
0.008400034062
0.008400029436
0.008400031968
0.00840002954
0.008400033512
0.008400033816
0.008400030403
0.00840003119
0.008400031
0.008400033477
0.00840003147
0.008400033244
0.008400032722
0.008400031907
0.008400033766
0.008400035671
0.008400028257
0.008400030272
0.00840003568
0.008400029883
0.008400029584
0.008400032103
0.008400032621
0.008400032325
0.008400034158
0.008400033153
0.008400032347
0.008400033111
0.008400032682
0.008400031007
0.008400032019
0.008400031687
0.008400032952
0.008400029819
0.00840003215
0.008400033127
0.00840003031
0.008400029869
0.008400028835
0.008400028754
0.008400033576
0.008400033109
0.008400030218
0.008400029842
0.0084000327
0.008400026967
0.008400029807
0.00840002727
0.008400033072
0.008400032048
0.008400031481
0.008400031752
0.008400030895
0.008400033618
0.008400031229
0.00840003353
0.008400033862
0.008400032862
0.008400032939
0.008400034586
0.008400032079
0.008400033608
0.008400032849
0.008400031767
0.008400033865
0.008400031291
0.008400033434
0.008400031805
0.008400033001
0.008400031959
0.008400030851
0.008400033098
0.008400032211
0.008400034413
0.008400035782
0.008400033947
0.008400032139
0.008400035888
0.008400032661
0.008400032841
0.008400032645
0.008400027204
0.008400031606
0.008400027684
0.008400029846
0.008400034743
0.008400030886
0.008400032481
0.008400030418
0.00840003477
0.008400032658
0.00840003234
0.008400030946
0.008400030452
0.00840003358
0.008400032177
0.008399893356
0.008400029805
0.008400033451
0.008400026045
0.008400029992
0.008400031064
0.008400030727
0.008400030457
0.008400034825
0.008400031039
0.008400032771
0.008400033804
0.008400031286
0.008400032685
0.008400033982
0.008400030745
0.008400029841
0.008400033698
0.008400031478
0.008400033361
0.008400032039
0.00840003151
0.008400031032
0.008400032326
0.00840003252
0.008400034688
0.008400034504
0.008400031102
0.008400031254
0.008400029794
0.008400034563
0.008400035848
0.008400033241
0.008400033997
0.008400031232
0.008400035193
0.008400033589
0.00840003242
0.008400032524
0.00840003446
0.008400033306
0.008400031949
0.00840003374
0.008400032547
0.008400035018
0.008400035653
0.008400032106
0.008400033897
0.008400032013
0.008400032986
0.00840003344
0.008400034846
0.008400031865
0.008400032169
0.00840003068
0.00840003378
0.008400032028
0.008400032606
0.008400033511
0.00840003238
0.008400032853
0.008400032127
0.008400035173
0.008400034669
0.008400032907
0.008400033949
0.008400032394
0.008400032513
0.008400030442
0.008400033986
0.008400032548
0.00840003411
0.008400034335
0.008400034669
0.008400033464
0.008400031311
0.008400034876
0.008400033222
0.00840003156
0.008400034607
0.008400029255
0.008400032144
0.008400030139
0.008400035147
0.008400032937
0.008400033766
0.008400032726
0.008400031796
0.008400011554
0.00840003253
0.008400032453
0.008400032545
0.008400030622
0.008400034135
0.008400033418
0.00840003046
0.008400032766
0.008400031295
0.008400034089
0.00840003086
0.00840003121
0.008400027832
0.008400031758
0.00840002957
0.008400032998
0.008400031566
0.00840003158
0.008400033222
0.008400035342
0.0084000329
0.008400030394
0.008400033865
0.008400030884
0.008400032669
0.008400032134
0.008400034886
0.0084000311
0.008400034458
0.008400030758
0.008400031463
0.008400029354
0.00840003069
0.00840003499
0.008400034376
0.008400030197
0.00840003243
0.008400031373
0.008400031418
0.008400031597
0.008400026426
0.008400033918
0.008400031018
0.008400031469
0.008400033703
0.008400031088
0.008400030954
0.008400033677
0.008400033693
0.008400030612
0.008400031556
0.008400025926
0.008400030545
0.008400032304
0.008400034304
0.008400030094
0.00840003325
0.008400029679
0.008400034259
0.008400031336
0.008400031124
0.008400030949
0.008400031675
0.008400031583
0.008400033053
0.008400031972
0.008400029607
0.008400030307
0.008400033476
0.008400029891
0.008400029645
0.008400034054
0.008400033765
0.008400032224
0.00840003392
0.008400033894
0.008400034195
0.008400032128
0.008400033348
0.008400031233
0.008400033982
0.008400032782
0.008400031145
0.008400033392
0.008400035079
0.008400032753
0.008400032084
0.00840003314
0.008400033525
0.008400031134
0.008400029904
0.008400032156
0.008400032566
0.008400031874
0.008400030408
0.008400032886
0.008400033791
0.00840003406
0.008400032422
0.008400033999
0.008400028293
0.008400030829
0.008400033356
0.008400031658
0.00840003235
0.008400028757
0.008400032435
0.008400032864
0.008400033322
0.008400031267
0.008400033961
0.008400033332
0.008400033202
0.008400034872
0.008400033927
0.008400033321
0.008400034086
0.00840003149
0.008400029681
0.008400034179
0.008400029393
0.008400032659
0.008400029957
0.00840003126
0.008400031866
0.008400033906
0.00840002883
0.00840003077
0.00840003145
0.008400029095
0.008400033451
0.008400031318
0.008400030214
0.00840003131
0.008400029111
0.008400033282
0.008400033441
0.008400023276
0.008400032446
0.008400031716
0.008400030607
0.008397202334
0.008397754944
0.008397373576
0.008395147122
0.00839672181
0.008398169317
0.008398459523
0.008397963492
0.00839806771
0.008398199309
0.008397886193
0.008398476896
0.008398554941
0.008399383181
0.008398444988
0.008398211189
0.00839853372
0.008398121148
0.008393877376
0.008382256396
0.008383078746
0.00836081285
0.008380784728
0.008362629315
0.008397605304
0.00837489405
0.008387188012
0.008396380069
0.008382848062
0.00838675309
0.008358709784
0.008384544439
0.008394961705
0.008386245929
0.008399539397
0.008400031678
0.00840003154
0.008400029945
0.008400030619
0.008400030063
0.008400034426
0.008400029745
0.008400033285
0.008399932402
0.008400033261
0.008400029368
0.00840003136
0.008400029726
0.008400026323
0.008400029414
0.008400029015
0.008400031508
0.008400031053
0.008400030002
0.008400031453
0.008400033511
0.008400032347
0.008400030866
0.008400032156
0.008400033198
0.008400030511
0.008400031247
0.008397823045
0.008398118257
0.008398805226
0.008397903545
0.008396784357
0.008397062597
0.008398931817
0.008396907358
0.008397142948
0.0083988646
0.008397550687
0.008397611617
0.00839503077
0.008389704856
0.008378595945
0.008360855977
0.008370899339
0.008392874331
0.00836131454
0.008358339323
0.008353812073
0.008368431294
0.007110246866
0.008373917524
0.008390394931
0.008400030677
0.008400025779
0.00840002835
0.008400027704
0.008400032389
0.008400029021
0.008400034016
0.008400032523
0.008400033827
0.008400033959
0.008400027503
0.008400032363
0.008400028816
0.008400030255
0.008400027171
0.008400031136
0.008400032649
0.008400031735
0.008398692103
0.008400029097
0.008400034707
0.008400027812
0.008400032095
0.008400024303
0.008400033389
0.008400026144
0.008397515449
0.008397956051
0.008395212961
0.008397519566
0.008397529266
0.008399126584
0.008397730808
0.008398406251
0.008399310138
0.008398342411
0.008389286162
0.008364896689
0.008364174903
0.008371218568
0.008372260367
0.008398860439
0.008392799266
0.008396283561
0.008377142423
0.008392211423
0.008392880888
0.008394977439
0.008379609265
0.008394147411
0.007611052454
0.006894072008
0.007572775037
0.00720155533
0.007488095292
0.006947569725
0.008352151633
0.007168058092
0.008163695325
0.007338256848
0.008394951044
0.008400031512
0.008400033411
0.00840003198
0.008400033382
0.00840003057
0.008400033894
0.008400030349
0.008400032369
0.008400032042
0.008400032476
0.008400031101
0.008400033751
0.008400031121
0.008400032913
0.008400032691
0.008400034524
0.008400031881
0.008400020837
0.008400031767
0.008400032756
0.008400033251
0.008400033122
0.008400030535
0.008400033204
0.008400033415
0.008400034104
0.008400030862
0.008400032856
0.008400029225
0.008400031869
0.008400030053
0.008400032477
0.008400032451
0.008400031629
0.008400032526
0.008400026616
0.008400028839
0.00840003183
0.008395235703
0.008398184765
0.00839859174
0.008398598032
0.008395615084
0.008395182179
0.008398230617
0.008398552646
0.008399098649
0.008398516458
0.008390403659
0.00839745539
0.008397469859
0.008397212424
0.008396860461
0.00839781377
0.008397426565
0.008398210227
0.008397336523
0.008397648616
0.008398232663
0.008394251978
0.008361739433
0.008374389202
0.008360244765
0.008374359113
0.008396891896
0.008390627945
0.008365822477
0.00838022508
0.00836955543
0.008398344641
0.008397645522
0.008367183236
0.008368976386
0.008366186209
0.008362683139
0.008374977269
0.008361153376
0.008400033998
0.008399937141
0.008400032945
0.008400033778
0.008400033859
0.008400030062
0.008399633062
0.008400033233
0.008400027954
0.008400027742
0.008400030356
0.00840002537
0.008399639667
0.008400032083
0.008400030633
0.00840003115
0.008400029803
0.008400031529
0.008400030915
0.008400032927
0.008400030332
0.008400028181
0.008400029394
0.008400029526
0.008400029787
0.008397492602
0.008399145266
0.008398852117
0.008398922251
0.008398908082
0.008399109791
0.008398853803
0.008397632679
0.008398445756
0.008398598196
0.008398024264
0.008371392803
0.008379594881
0.008376766876
0.008375158645
0.008391317991
0.008372345997
0.008391360955
0.008384654555
0.00839839276
0.008387953323
0.008398714188
0.008396778129
0.006920155404
0.008385119368
0.008400034187
0.008400030296
0.00840002651
0.008400033114
0.008400028426
0.008400031374
0.008400030591
0.008400029205
0.008400027831
0.008400029173
0.008400018406
0.008400032877
0.008400034557
0.008400034281
0.008400033016
0.00840003074
0.008400032765
0.008400027884
0.008400030499
0.008400028681
0.008400031618
0.008400028043
0.008400033732
0.008400027588
0.008400029831
0.008397786811
0.008398017624
0.008399094952
0.008397896623
0.008397911703
0.008399120991
0.008397745737
0.008397991851
0.008397888425
0.008398743438
0.008398388631
0.008397461948
0.008362413104
0.008376492481
0.008378059067
0.008388322096
0.008380303187
0.008382188293
0.008396254972
0.008396296045
0.008385819328
0.008361967083
0.008376741805
0.008366855451
0.00839594404
0.008362428854
0.006910278502
0.007038648984
0.008400031032
0.008400032322
0.008400031669
0.008400032608
0.008400031406
0.008400032588
0.008400027599
0.008400027987
0.008400030486
0.008400034013
0.008400031756
0.008400032214
0.008400033504
0.008400034007
0.008400030655
0.008400031675
0.008400032691
0.008400028756
0.008400015902
0.008400030839
0.008400030806
0.008400026118
0.008400033235
0.008400033138
0.008400033201
0.008400032323
0.008400030666
0.008400030127
0.008400031543
0.008400030577
0.008400030295
0.008400033708
0.008400031334
0.008396338599
0.008397670522
0.008396543333
0.008397838857
0.008396662213
0.008396575413
0.008398124852
0.008398289833
0.008397891869
0.008383878907
0.008397860138
0.008395603026
0.00839583249
0.008396333093
0.008396412813
0.008398887594
0.008395390773
0.008395351953
0.008396643427
0.00839875512
0.00838558694
0.008364475293
0.008394451775
0.008397247263
0.007170851801
0.00837160318
0.008369607051
0.008393664678
0.008365794384
0.008384544027
0.008390325799
0.008362073558
0.008394576523
0.008370510567
0.0083778604
0.008394803291
0.008400029303
0.008400030509
0.008400030149
0.00840003297
0.00840002883
0.008400033906
0.008399689223
0.008400029127
0.008400029058
0.008399515646
0.008400033621
0.008400026059
0.008400031034
0.008400025106
0.008397626454
0.008400028281
0.00840002959
0.008400030608
0.008400028334
0.008400033472
0.008400021905
0.008400031955
0.008400031101
0.008400027059
0.008400032434
0.008400027147
0.008400027172
0.008400026999
0.008396169771
0.008398853243
0.008396075691
0.008396376641
0.008398324137
0.00839837658
0.008398293845
0.008395538776
0.008398089757
0.008397786992
0.007166235724
0.008383445822
0.008371788572
0.007670790781
0.008398206426
0.008362417409
0.008397172265
0.00838839587
0.007868173374
0.008383410832
0.008396022288
0.008359657043
0.008364421821
0.008400032071
0.008399744826
0.008400028655
0.008400033356
0.008400028654
0.00840003224
0.008400029672
0.008400033622
0.008400026182
0.008400030096
0.008400027743
0.008400030657
0.008400027748
0.008400030084
0.008400029064
0.008400030685
0.008400029338
0.008400029503
0.00840003113
0.008400031002
0.008400026651
0.008400026782
0.008400031317
0.008400028614
0.008400030021
0.008400031844
0.008400027672
0.008400030892
0.008396753305
0.008396965328
0.008398063644
0.008397560303
0.008393938726
0.008393861156
0.008397528339
0.008392886921
0.008393448587
0.008399224749
0.008398442281
0.008396600217
0.008399928958
0.008398376708
0.008398636749
0.008383957955
0.00839587771
0.008353489865
0.008393805148
0.008373476788
0.008367915316
0.008389145255
0.008393111361
0.008372336558
0.008398063065
0.008376390756
0.007722508436
0.008192935775
0.007068037636
0.007432528639
0.007503760924
0.0080509737
0.007914649799
0.008343711117
0.008055531854
0.007297445261
0.007940198186
0.008333180519
0.007088204162
0.008400026653
0.008400030052
0.008400030262
0.008400028739
0.008400031036
0.008400032681
0.008400033549
0.0084000344
0.008400032337
0.008400031241
0.008400031175
0.008400033701
0.008400034433
0.008400033805
0.008400033077
0.008400033531
0.008400031228
0.008400033696
0.008400033034
0.008400034157
0.008400030437
0.008400026605
0.008400033178
0.008400029416
0.008400032596
0.008400033263
0.008400030974
0.008400025379
0.008400033979
0.008400031681
0.008400028868
0.008400030768
0.008400031063
0.008400032466
0.0084000333
0.008400031266
0.008400032904
0.008398860728
0.008398522688
0.008397505507
0.008397302914
0.008398907656
0.008398494884
0.008389321299
0.008398921981
0.008396388211
0.008397964049
0.008397598441
0.008397526994
0.008390493512
0.008399086016
0.008396004268
0.008398405098
0.008394967652
0.008396042205
0.008113574429
0.008361924001
0.008396666959
0.008377691853
0.008394263547
0.008385049765
0.00836204464
0.008397986596
0.008397006519
0.008373509471
0.008372590255
0.008363632427
0.008369175908
0.008391903569
0.008379357052
0.008398770352
0.008357628513
0.008372160587
0.008383934642
0.008400030497
0.008400030919
0.008400031273
0.008400033308
0.008400028183
0.008400028689
0.008400030949
0.008400029392
0.008399980689
0.00840003076
0.008400027226
0.008400031429
0.008400028605
0.008400033012
0.008400031854
0.008400031562
0.008400026309
0.008400031438
0.008400023861
0.008400029264
0.008400031962
0.008400029486
0.008400032907
0.008400027346
0.008396592588
0.0083972442
0.008398201325
0.008396469282
0.008396738377
0.008396752964
0.008395564324
0.008398118002
0.008398480857
0.008395756414
0.008396335227
0.00839685686
0.008397045781
0.008396427632
0.008396978717
0.008395810613
0.008364147189
0.008354720481
0.0083771396
0.008383333385
0.008388885437
0.008385969442
0.008393456668
0.008360603664
0.00836329579
0.008379909182
0.008394292889
0.007195657579
0.008400034044
0.008400031427
0.008400032612
0.008400033355
0.00840003075
0.008400034422
0.008400030878
0.00839936352
0.008400033435
0.008400029823
0.00840003279
0.00840003419
0.00840002969
0.008400031602
0.008400028573
0.008400033012
0.008400033091
0.008400030149
0.008400029562
0.008400031606
0.008400032438
0.008400031258
0.008400032592
0.008400030405
0.008400029587
0.00840003122
0.008399378268
0.008396169465
0.008399424153
0.008397878514
0.008398427679
0.008398899507
0.008398338822
0.008399312153
0.008397632615
0.008399108973
0.008397364856
0.008397701128
0.008399218283
0.008388465946
0.008395613312
0.008371450741
0.008389284891
0.008376098178
0.00839227211
0.008394304697
0.00839567936
0.008367739329
0.008358805542
0.008388043504
0.008384555618
0.006945874088
0.00726643452
0.008014627743
0.008162529387
0.007493283711
0.008349129171
0.006857849147
0.006858256911
0.006817039369
0.006915725885
0.006803648792
0.006826177899
0.006824018062
0.006823761303
0.006823332919
0.00685560842
0.0068343846
0.006815921129
0.006859741241
0.006859756254
0.0068155091
0.006816652151
0.007156837211
0.006851646904
0.00685300267
0.007184067975
0.007860580437
0.00685642137
0.006806096021
0.006826870324
0.007196734068
0.007856597899
0.006814671421
0.00679743896
0.006799968264
0.006828397115
0.006810486524
0.006815076126
0.006796390647
0.006798118687
0.006816269676
0.006815025555
0.006791736353
0.00679524988
0.006807147488
0.006793518547
0.006796944086
0.0068076695
0.00681369418
0.00679714888
0.006799279572
0.00679024306
0.006811231937
0.006797567387
0.006798737176
0.006787852305
0.006794422803
0.006806865143
0.006814939491
0.006853490941
0.006851329757
0.006858517314
0.006834379133
0.006816239572
0.006850788886
0.006862666147
0.006828861495
0.006857899394
0.006846455568
0.006820867462
0.006857358919
0.006857127261
0.006819402329
0.00682312313
0.006812293247
0.006811320941
0.00681709779
0.006820386702
0.006814228402
0.006816794903
0.006835280847
0.00680525581
0.006816943279
0.006819626866
0.006811390281
0.006807049774
0.006814020032
0.006804018244
0.006822249871
0.006815016469
0.006822194804
0.006811388772
0.006819528155
0.006854374393
0.006831292123
0.006854912113
0.006856980129
0.006833981884
0.006823698235
0.006832525495
0.006857029457
0.006858970097
0.006862334583
0.006828758145
0.00683773652
0.006823890411
0.006864328056
0.006844511152
0.006858032335
0.006858129706
0.00685371796
0.006807286388
0.006816081498
0.006815582526
0.00681345669
0.00683603639
0.006815688731
0.006812997748
0.006816603442
0.006815601692
0.006803369097
0.006834921526
0.00682578442
0.006822064131
0.006817420866
0.006812406553
0.006865984919
0.006821731542
0.006854440617
0.006855854045
0.007079023149
0.006815007005
0.006855420833
0.00681897291
0.006847797936
0.006853431426
0.006811983876
0.006848300905
0.006820093709
0.006861412053
0.00682071091
0.006904728312
0.006906939345
0.006855669377
0.006845129597
0.006858917245
0.006858228914
0.007914658164
0.006852731571
0.006855860422
0.006821196104
0.006855858257
0.006818565554
0.006819516388
0.006815357441
0.006825455136
0.006801796877
0.006804052766
0.006819239183
0.006815052207
0.006801606738
0.006810479181
0.006815194296
0.00680381769
0.006800864217
0.006814444319
0.006804103233
0.006812468422
0.006809578345
0.006806266561
0.006816475409
0.006851661263
0.007082758007
0.006834311372
0.006844004891
0.00690090501
0.006864164874
0.006815649627
0.006848909609
0.00685226636
0.006818611916
0.006855799996
0.006963231525
0.007316003375
0.00680768181
0.006855853029
0.007090301374
0.006817888478
0.007559201908
0.006858049316
0.006850150581
0.00684174522
0.006828615865
0.006861305912
0.006838815043
0.006810330818
0.006831991802
0.006820206509
0.006823080755
0.006814391377
0.006816118978
0.006818143013
0.006813273227
0.006821473073
0.006830347239
0.006809138417
0.006809720413
0.006816847702
0.006821214117
0.00684507806
0.006818783842
0.006842127632
0.006853405444
0.006855335088
0.0068205615
0.006826514627
0.006855207506
0.006852077254
0.006826508744
0.006855657754
0.006855496668
0.006833112638
0.006823277304
0.006849931827
0.006829403743
0.00682262545
0.006811772262
0.006804489081
0.006825995359
0.006807597057
0.006810606578
0.006838084322
0.006820132828
0.00681426128
0.006806556653
0.006817204612
0.006815011308
0.006819374958
0.006834331158
0.006803463881
0.006810869987
0.006805427678
0.006805311125
0.006835967443
0.006845574776
0.006835959344
0.007125754634
0.006865123159
0.006832462675
0.006829507959
0.006863502079
0.00684360001
0.006820806955
0.006859426526
0.006857819573
0.006867019438
0.006868402641
0.00684310003
0.006851066268
0.006850656095
0.006918647122
0.006858255159
0.006817383856
0.006859188566
0.006820518325
0.006811253232
0.006860155661
0.006820889725
0.006825762284
0.006805724898
0.006847312924
0.006818125915
0.006855742793
0.006907335652
0.007144430773
0.006810440016
0.006829342769
0.006815348797
0.006822220788
0.006822248574
0.00681144121
0.006833993109
0.006833158514
0.006825894685
0.006805793623
0.00681067689
0.006810341529
0.006801678931
0.006810365652
0.006809579999
0.006813495476
0.006802582795
0.00680837214
0.006812554998
0.006806475498
0.006819275821
0.006814797734
0.006808589268
0.006805647461
0.006805220172
0.006820403826
0.006820936634
0.006803228559
0.006798323825
0.006809543664
0.006803439545
0.006849325312
0.006820668835
0.006830909712
0.006816888042
0.006852822736
0.006846262764
0.006847897188
0.006848466762
0.006840471062
0.007019846484
0.006833945925
0.006849723327
0.006824773632
0.006859586149
0.006839516038
0.006806823195
0.006821225959
0.006814904725
0.00681633782
0.006802399713
0.006813154943
0.006804255985
0.006815866733
0.006817517488
0.006806367473
0.006803952425
0.006811631352
0.006824311961
0.006829216836
0.006822238311
0.006826915387
0.006818827953
0.006831088643
0.006837154273
0.006881415336
0.006881926844
0.00681758977
0.00685823127
0.006851857995
0.006856926011
0.006833238056
0.006859851587
0.006865156644
0.006826773532
0.006846918547
0.006861779087
0.006850594327
0.006954279761
0.006819793061
0.006834757212
0.007483061751
0.006833683697
0.00682767465
0.006814381532
0.006799319228
0.006808346516
0.006808628657
0.006812471009
0.006812900119
0.006823333193
0.006841025656
0.006817027661
0.006822429039
0.006813778435
0.006808825515
0.006815365124
0.006808718205
0.006812733332
0.006814364055
0.006814542088
0.006826353582
0.006813817755
0.006816118339
0.006807796332
0.006855853536
0.006816137796
0.006856177378
0.006822297279
0.006850972898
0.006853571169
0.006816823304
0.00682175125
0.006817842842
0.006815002383
0.006847068753
0.006855117143
0.006813262471
0.006904176921
0.006819090004
0.006857759381
0.006848015337
0.006818047877
0.006823406744
0.006824549847
0.006862756202
0.006855134456
0.006815383139
0.006849173294
0.006863908877
0.006828379735
0.006830774707
0.006862171324
0.006865612297
0.00680760364
0.006814413765
0.006808066681
0.006812004998
0.006811769807
0.006804102102
0.006812883218
0.006811673785
0.006806025893
0.006807946071
0.006806372066
0.006813984324
0.00681869647
0.006805489212
0.006819837522
0.006820845617
0.006803810718
0.006809546615
0.006820224695
0.006824961689
0.006853799387
0.006859259558
0.006824835888
0.006833923437
0.00691627515
0.006827211415
0.006864030821
0.006812981095
0.006860263048
0.006826732281
0.00690403215
0.006859588316
0.006825359121
0.006839948848
0.006862909383
0.006860569095
0.00685895221
0.006826760514
0.006847435172
0.006820905112
0.006810846396
0.006818264999
0.006829483651
0.006828928173
0.006818092917
0.006827902763
0.006822039851
0.006817347582
0.006818944243
0.00681851634
0.006823156661
0.0068296141
0.006807266411
0.006847340758
0.006943934926
0.007673769308
0.006820837991
0.006853874948
0.006985823627
0.006815682437
0.006844850855
0.006853351814