/*--------------------------------*- C++ -*----------------------------------*\
  =========                 |
  \\      /  F ield         | OpenFOAM: The Open Source CFD Toolbox
   \\    /   O peration     | Website:  https://openfoam.org
    \\  /    A nd           | Version:  7
     \\/     M anipulation  |
\*---------------------------------------------------------------------------*/
FoamFile
{
    version     2.0;
    format      ascii;
    class       scalarField;
    location    "2/lagrangian/coalCloud1";
    object      dBeforeDEM;
}
// * * * * * * * * * * * * * * * * * * * * * * * * * * * * * * * * * * * * * //


2000
(
0.00840003546
0.00840003227
0.008400030938
0.008400031651
0.008400031785
0.008400032029
0.008400031525
0.008400034027
0.00840003295
0.008400034241
0.008400033196
0.008400034526
0.008400031221
0.008400033599
0.008400031173
0.008400030663
0.008400024901
0.00840003314
0.008400033688
0.008400031766
0.008400034239
0.008400031675
0.008400032099
0.008400028781
0.008400035265
0.008400032446
0.008400032192
0.008400034317
0.008400033599
0.008400032891
0.008400032773
0.008400032662
0.008400032231
0.008400030532
0.008400032986
0.008400034456
0.008400033808
0.008400031233
0.008400033501
0.008400033791
0.00840003466
0.008400034731
0.008400032656
0.008400032575
0.008400033794
0.008400030076
0.008400030573
0.00840003226
0.008400034674
0.008400035625
0.008400034373
0.008400033016
0.00840003042
0.008400034552
0.00840003373
0.008400033785
0.008400035281
0.00840003442
0.008400031698
0.008400033962
0.008400034964
0.008400032686
0.008400031784
0.008400032871
0.008400032156
0.008400031455
0.008400033587
0.008400028176
0.008400033424
0.008400030967
0.008400033493
0.008400032086
0.008400031682
0.008400032343
0.008400033632
0.008400035161
0.008400034154
0.008400031579
0.008400030683
0.008400030539
0.008400028675
0.008400033044
0.008400032996
0.008400028054
0.008400029412
0.008400031732
0.008400026486
0.008400032638
0.008400034439
0.008400028523
0.008400032999
0.008400032293
0.008400027858
0.008400032491
0.008400033382
0.008400031648
0.008400032601
0.008400032455
0.008400032278
0.008400032518
0.008400028134
0.008400033881
0.008400032546
0.008400033131
0.008400033455
0.008400032368
0.008400032413
0.008400030425
0.008400032191
0.008400031922
0.008400029595
0.008400031391
0.008400029851
0.008400033041
0.008400031854
0.008400034314
0.008400034808
0.008400030968
0.008400032195
0.008400031684
0.008400033385
0.008400031333
0.00840003355
0.008400031893
0.008400032109
0.008400032335
0.008400032095
0.00840003315
0.008400032346
0.008400026355
0.008400030329
0.008400033947
0.008400033807
0.008400032513
0.008400033161
0.008400029311
0.00840003398
0.0084000327
0.008400036305
0.00840003269
0.008400032034
0.008400031994
0.008400033622
0.008400028949
0.008400033952
0.008400035091
0.008400031509
0.008400031914
0.008400033213
0.008400032968
0.008400031241
0.008400031314
0.008400031808
0.008400030968
0.008400029869
0.008400035018
0.008400031623
0.008400034225
0.008400032629
0.008400034637
0.008400034587
0.008400032213
0.008400031754
0.008400033582
0.00840003191
0.008400032121
0.008400029865
0.008400034292
0.008400033463
0.008400032325
0.008400032275
0.008400032843
0.008400031679
0.008400032992
0.008400032762
0.008400035004
0.008400032147
0.008400032345
0.00840003342
0.008400034157
0.008400029091
0.00840003348
0.008400033005
0.008400030564
0.008400027825
0.008400029996
0.008400032743
0.008400031028
0.008400032234
0.00840003074
0.008400034119
0.008400032709
0.008400029348
0.008400033529
0.008400029843
0.008400031615
0.008400031312
0.008400035136
0.008400032182
0.008400033667
0.008400032726
0.008400032314
0.008400032455
0.008400030018
0.008400032855
0.008400033326
0.008400032457
0.008400029806
0.008400032848
0.008400033147
0.008400033601
0.008400031908
0.008400024063
0.008400030836
0.008400029854
0.008400032437
0.008400033004
0.008400033298
0.008400034439
0.008400030559
0.008400033397
0.008400032107
0.008400036199
0.00840003593
0.008400032552
0.008400033484
0.008400035338
0.008400034332
0.008400031925
0.008400034838
0.008400031238
0.008400034255
0.008400032703
0.008400031207
0.008400032001
0.008400035228
0.008400034329
0.008400031453
0.008400032882
0.008400034145
0.008400034962
0.008400033722
0.008400035108
0.008400034446
0.008400034912
0.008400033634
0.008400035091
0.00840003422
0.008400034517
0.008400033799
0.008400035385
0.008400027694
0.008400032685
0.008400035122
0.008400034606
0.008400034552
0.008400030185
0.008400034515
0.008400034811
0.008400034835
0.008400035014
0.008400034413
0.008400033965
0.008400032804
0.008400034785
0.008400031302
0.008400034225
0.008400034453
0.008400027672
0.008400035254
0.008400032921
0.008400032091
0.00840003359
0.008400031075
0.008400032911
0.008400028879
0.008400033082
0.008400032364
0.008400031209
0.008400029694
0.008400030799
0.008400031597
0.008400030371
0.008400031897
0.008400031014
0.008400031603
0.008400026779
0.008400033967
0.008400030521
0.008400030264
0.00840003162
0.008400032502
0.008400034491
0.008400032376
0.008400031143
0.008400031254
0.008400031514
0.00840003231
0.008400031127
0.008400029489
0.008400030977
0.008400026981
0.008400034755
0.008400032616
0.008400033239
0.008400031408
0.008400034154
0.008400032886
0.008400029897
0.008400032691
0.008400030305
0.008400030994
0.008400032825
0.008400033725
0.008400032354
0.008400032434
0.008400031024
0.008400032723
0.008400029023
0.00840003494
0.008400031446
0.008400030803
0.008400032413
0.008400033554
0.008400031088
0.008400032787
0.00840002964
0.008400034218
0.008400031029
0.008400034545
0.008400027687
0.008400031239
0.008400031683
0.008400033187
0.008400033215
0.008400033952
0.008400028643
0.008400034108
0.008400033724
0.008400033234
0.008400033764
0.008400032795
0.008400031144
0.008400020794
0.008400027411
0.008400028638
0.008400031799
0.008400031808
0.00840003233
0.008400031304
0.008400030578
0.00840003342
0.008400032447
0.008400032373
0.008400033315
0.008400031356
0.008400032627
0.008400032429
0.008400031365
0.00840003643
0.008400031207
0.0084000319
0.008400030142
0.008400035096
0.008400034907
0.008400030288
0.008400030287
0.008400031224
0.008400031917
0.008400031977
0.008400031893
0.008400030825
0.008400034531
0.008400030451
0.008400035066
0.008400033281
0.008400034578
0.00840003029
0.008400027066
0.008400029992
0.008400031217
0.008400032815
0.008400032336
0.008400031764
0.008400034006
0.0084000325
0.00840003198
0.008400026981
0.008400030025
0.008400032027
0.008400035081
0.00840003419
0.008400027891
0.008400033865
0.008400034102
0.008400030694
0.008400034463
0.008400031361
0.008400031949
0.008400031514
0.00840003223
0.008400032717
0.00840003408
0.00840003314
0.00840002942
0.008400030563
0.008400033324
0.008400034368
0.008400033699
0.008400031864
0.008400031726
0.00840002818
0.008400034223
0.008400033145
0.008400034312
0.008400033505
0.008400034319
0.008400032234
0.008400029406
0.008400031663
0.008400034707
0.008400033721
0.00840003546
0.008400032764
0.008400034401
0.008400032401
0.008400034058
0.008400035529
0.008400029941
0.008400033113
0.008400030702
0.008400031989
0.008400034107
0.008400034199
0.008400034912
0.008400032243
0.008400034457
0.008400029669
0.008400030818
0.008400032249
0.008400033556
0.008400031156
0.00840003255
0.008400032957
0.008400030159
0.008400033911
0.00840003446
0.008400032006
0.008400032959
0.008400031667
0.00840003198
0.008400031161
0.008400034387
0.008400034256
0.008400032368
0.008400030817
0.008400033273
0.008400030531
0.008400033841
0.008400029932
0.008400032912
0.008400033418
0.008400033119
0.008400029782
0.008400033536
0.008400031606
0.008400032714
0.008400031196
0.008400030611
0.00840003178
0.008400030051
0.008400030175
0.008400027673
0.008400034615
0.008400033297
0.008400031274
0.008400033223
0.008400033581
0.008400032058
0.008400032007
0.008400032969
0.008400030991
0.008400032177
0.008400034063
0.008400029436
0.008400031968
0.00840002954
0.008400033512
0.008400033816
0.008400030403
0.00840003119
0.008400031
0.008400033477
0.00840003147
0.008400033245
0.008400032723
0.008400031908
0.008400033767
0.008400035671
0.008400028257
0.008400030272
0.00840003568
0.008400029883
0.008400029584
0.008400032104
0.008400032621
0.008400032325
0.008400034158
0.008400033153
0.008400032347
0.008400033111
0.008400032682
0.008400031007
0.008400032019
0.008400031687
0.008400032952
0.008400029819
0.00840003215
0.008400033127
0.00840003031
0.008400029869
0.008400028836
0.008400028755
0.008400033576
0.008400033109
0.008400030218
0.008400029842
0.0084000327
0.008400026967
0.008400029807
0.00840002727
0.008400033072
0.008400032048
0.008400031481
0.008400031752
0.008400030895
0.008400033618
0.008400031229
0.008400033531
0.008400033862
0.008400032862
0.008400032939
0.008400034586
0.008400032079
0.008400033609
0.008400032849
0.008400031767
0.008400033865
0.008400031291
0.008400033434
0.008400031805
0.008400033001
0.008400031959
0.008400030851
0.008400033098
0.008400032211
0.008400034413
0.008400035782
0.008400033947
0.008400032145
0.008400035888
0.008400032661
0.008400032841
0.008400032645
0.008400027205
0.008400031606
0.008400027684
0.008400029846
0.008400034743
0.008400030886
0.008400032481
0.008400030418
0.00840003477
0.008400032658
0.008400032346
0.008400030946
0.008400030458
0.00840003358
0.008400032177
0.008399893356
0.008400029806
0.008400033451
0.008400026045
0.008400029993
0.008400031064
0.008400030727
0.008400030458
0.008400034826
0.008400031039
0.008400032771
0.008400033804
0.008400031286
0.008400032685
0.008400033983
0.008400030745
0.008400029841
0.008400033698
0.008400031478
0.008400033361
0.008400032039
0.00840003151
0.008400031032
0.008400032326
0.008400032521
0.008400034688
0.008400034505
0.008400031102
0.008400031254
0.008400029794
0.008400034563
0.008400035848
0.008400033241
0.008400033997
0.008400031232
0.008400035193
0.008400033589
0.00840003242
0.008400032524
0.00840003446
0.008400033307
0.008400031949
0.00840003374
0.008400032547
0.008400035018
0.008400035653
0.008400032107
0.008400033897
0.008400032013
0.008400032986
0.00840003344
0.008400034846
0.008400031865
0.008400032169
0.00840003068
0.00840003378
0.008400032028
0.008400032606
0.008400033511
0.00840003238
0.008400032853
0.008400032127
0.008400035173
0.00840003467
0.008400032907
0.008400033949
0.008400032394
0.008400032513
0.008400030442
0.008400033986
0.008400032548
0.00840003411
0.008400034335
0.00840003467
0.008400033464
0.008400031311
0.008400034876
0.008400033222
0.00840003156
0.008400034607
0.008400029255
0.008400032148
0.00840003014
0.008400035147
0.008400032937
0.008400033766
0.008400032726
0.008400031796
0.008400011554
0.00840003253
0.008400032453
0.008400032545
0.008400030622
0.008400034135
0.008400033418
0.00840003046
0.008400032766
0.008400031295
0.00840003409
0.00840003086
0.008400031211
0.008400027832
0.008400031759
0.00840002957
0.008400032998
0.008400031566
0.00840003158
0.008400033222
0.008400035342
0.0084000329
0.008400030394
0.008400033865
0.008400030884
0.008400032669
0.008400032134
0.008400034886
0.0084000311
0.008400034458
0.008400030758
0.008400031463
0.008400029354
0.00840003069
0.00840003499
0.008400034376
0.008400030197
0.00840003243
0.008400031373
0.008400031418
0.008400031597
0.008400026427
0.008400033918
0.008400031018
0.008400031469
0.008400033703
0.008400031088
0.008400030954
0.008400033677
0.008400033693
0.008400030612
0.008400031556
0.008400025938
0.008400030546
0.008400032305
0.008400034306
0.008400030094
0.00840003325
0.008400029679
0.008400034259
0.008400031336
0.008400031124
0.008400030949
0.008400031676
0.008400031583
0.008400033053
0.008400031972
0.008400029608
0.008400030307
0.008400033476
0.008400029893
0.008400029647
0.008400034054
0.008400033765
0.008400032224
0.00840003392
0.008400033894
0.008400034195
0.008400032128
0.008400033348
0.008400031233
0.008400033982
0.008400032782
0.008400031145
0.008400033392
0.008400035079
0.008400032753
0.008400032084
0.00840003314
0.008400033525
0.008400031134
0.008400029908
0.00840003216
0.008400032566
0.008400031878
0.008400030408
0.008400032886
0.008400033791
0.00840003406
0.008400032422
0.008400033999
0.008400028293
0.008400030833
0.008400033356
0.008400031661
0.008400032353
0.008400028757
0.008400032435
0.008400032864
0.008400033322
0.008400031267
0.008400033962
0.008400033332
0.008400033202
0.008400034872
0.008400033927
0.008400033321
0.008400034086
0.00840003149
0.008400029736
0.008400034179
0.008400029447
0.008400032659
0.008400029957
0.00840003131
0.008400031901
0.008400033921
0.00840002887
0.008400030836
0.0084000315
0.008400029119
0.008400033473
0.008400031384
0.008400030233
0.008400031348
0.008400029156
0.008400033306
0.008400033458
0.008400023381
0.008400032484
0.008400031762
0.008400030619
0.008397282771
0.008397822461
0.008397545482
0.008395304514
0.008396933289
0.008398230354
0.008398507798
0.008398021094
0.008398131208
0.008398259634
0.008397955328
0.008398534843
0.008398600388
0.008399383181
0.008398492762
0.008398264595
0.008398579363
0.008398177267
0.008394067752
0.008382713084
0.008383248405
0.008361744586
0.008381376712
0.008363522655
0.008397662453
0.008375575966
0.008387554401
0.008396491045
0.008383504248
0.008387134444
0.008359812344
0.008385056528
0.008395066927
0.00838659005
0.008399539397
0.008400031683
0.008400031541
0.008400029945
0.008400030619
0.008400030063
0.008400034426
0.008400029745
0.008400033285
0.008399932402
0.008400033317
0.008400029384
0.008400031388
0.008400029746
0.008400026335
0.008400029484
0.008400029046
0.008400031563
0.008400031125
0.008400030002
0.008400031469
0.008400033537
0.008400032386
0.00840003094
0.008400032206
0.008400033241
0.008400030548
0.008400031359
0.008397886608
0.008398173352
0.00839884562
0.008397964593
0.008396889979
0.008397158308
0.008398963591
0.008397008315
0.008397236472
0.008398901867
0.008397630176
0.008397686863
0.008395189871
0.008390004223
0.008379171679
0.00836169366
0.008371696851
0.008393086356
0.008361825158
0.008359102373
0.008354796542
0.008369192529
0.007110246866
0.008374637096
0.008390694697
0.008400030698
0.0084000258
0.00840002835
0.008400027758
0.00840003242
0.008400029073
0.008400034046
0.008400032564
0.008400033832
0.008400033964
0.008400027516
0.008400032425
0.008400028878
0.008400030326
0.008400027284
0.008400031166
0.008400032697
0.008400031765
0.008398692103
0.008400029169
0.008400034712
0.008400027887
0.008400032107
0.008400024399
0.008400033402
0.00840002623
0.008397598001
0.008398032876
0.008395368238
0.008397602041
0.008397611625
0.008399126584
0.008397771483
0.008398449952
0.008399333143
0.008398387616
0.008389601793
0.008365849932
0.00836511293
0.008371993544
0.008372864471
0.008398878379
0.008393067451
0.008396407958
0.008377746299
0.008392448103
0.008392904716
0.008395113293
0.008380177098
0.008394353699
0.007611081354
0.00689407358
0.007572775037
0.007201555392
0.007488127022
0.006947790352
0.008352994153
0.007168058092
0.008163729712
0.007338449782
0.008395130025
0.008400031512
0.008400033411
0.00840003198
0.008400033383
0.00840003059
0.008400033894
0.008400030349
0.008400032392
0.008400032053
0.008400032476
0.008400031112
0.008400033751
0.008400031121
0.008400032919
0.008400032691
0.008400034525
0.008400031881
0.008400020837
0.008400031824
0.00840003279
0.008400033285
0.008400033152
0.008400030608
0.008400033246
0.008400033415
0.008400034126
0.008400030891
0.008400032894
0.00840002928
0.008400031933
0.008400030114
0.008400032495
0.008400032475
0.008400031679
0.008400032578
0.008400026643
0.008400028898
0.008400031867
0.008395312472
0.008398247834
0.008398636169
0.008398642142
0.008395685218
0.008395259938
0.008398292674
0.008398598071
0.008399130579
0.008398556674
0.008390644534
0.008397538075
0.008397552027
0.008397302678
0.008396948761
0.008397866555
0.00839749314
0.008398272561
0.008397417108
0.008397702551
0.00839829418
0.008394729574
0.008362668765
0.008375057546
0.008360649971
0.008375004899
0.008397106731
0.008390929006
0.008366686734
0.00838114216
0.008370214458
0.008398399367
0.008397714188
0.008368066373
0.008369771902
0.008367046938
0.008363484417
0.008375781123
0.008362051056
0.008400033998
0.008399937141
0.008400032945
0.008400033795
0.008400033863
0.008400030062
0.008399633062
0.00840003326
0.008400027965
0.008400027775
0.008400030368
0.008400025378
0.008399639667
0.008400032121
0.008400030674
0.008400031206
0.008400029888
0.008400031565
0.008400031008
0.008400032943
0.008400030373
0.008400028238
0.008400029425
0.008400029582
0.008400029849
0.008397575053
0.008399176979
0.008398887938
0.008398968176
0.008398942024
0.008399146486
0.008398883424
0.00839769718
0.008398495435
0.00839864294
0.008398102419
0.008372211461
0.008380181946
0.008377485003
0.008375946259
0.008391528508
0.008373181412
0.008391750174
0.00838519619
0.008398425211
0.00838834928
0.008398747732
0.008396852913
0.006920155404
0.008385617855
0.008400034187
0.008400030296
0.00840002651
0.008400033114
0.008400028452
0.008400031374
0.008400030591
0.008400029233
0.008400027831
0.008400029195
0.008400018436
0.008400032878
0.008400034558
0.008400034282
0.008400033016
0.00840003082
0.008400032784
0.008400027903
0.008400030578
0.008400028731
0.00840003167
0.008400028106
0.008400033733
0.008400027647
0.00840002988
0.008397862715
0.008398083952
0.008399123277
0.00839796817
0.008397982368
0.008399148492
0.008397823308
0.008398061066
0.008397961708
0.008398785535
0.008398440298
0.008397545213
0.008362778091
0.008377330747
0.008378665052
0.008388643161
0.008380857967
0.00838272723
0.008396383037
0.008396423932
0.008386234226
0.00836291992
0.008377347993
0.008367645555
0.008396057943
0.008363273817
0.006910415908
0.007038803577
0.008400031073
0.008400032322
0.008400031673
0.008400032608
0.008400031406
0.008400032588
0.008400027599
0.008400027987
0.008400030486
0.008400034013
0.008400031775
0.008400032214
0.008400033504
0.008400034007
0.00840003071
0.008400031706
0.008400032719
0.008400028818
0.008400015902
0.008400030888
0.008400030841
0.00840002619
0.008400033256
0.008400033159
0.008400033238
0.008400032358
0.008400030729
0.008400030186
0.008400031558
0.008400030691
0.008400030411
0.008400033708
0.008400031382
0.008396338599
0.008397733523
0.008396663472
0.00839789757
0.008396777986
0.008396693588
0.008398173364
0.008398340363
0.008397954119
0.008384237831
0.008397923181
0.008395742369
0.008395964961
0.008396440048
0.008396519285
0.008398923009
0.00839548987
0.008395452721
0.00839674349
0.008398794529
0.008385879008
0.008365424092
0.008394583283
0.008397314019
0.007170851801
0.008372495905
0.008370426233
0.008393840559
0.008366642064
0.008384906804
0.0083906184
0.008362961789
0.008394732264
0.008371280779
0.008378409474
0.008394916171
0.008400029354
0.008400030558
0.008400030149
0.00840003297
0.00840002883
0.008400033906
0.008399689223
0.008400029161
0.008400029058
0.008399515646
0.008400033627
0.008400026065
0.008400031039
0.008400025147
0.008397626454
0.008400028345
0.008400029661
0.008400030701
0.008400028367
0.008400033498
0.00840002196
0.008400031982
0.008400031114
0.008400027234
0.008400032452
0.008400027184
0.008400027259
0.008400027031
0.008396312131
0.008398902876
0.008396215603
0.008396514559
0.008398372908
0.008398424031
0.008398342932
0.008395686264
0.008398162709
0.008397846291
0.007166235724
0.008384166209
0.008372586165
0.007670790794
0.008398268308
0.008363186462
0.008397246181
0.008388716417
0.007868175801
0.008383898694
0.00839613778
0.008360673811
0.008365605404
0.008400032071
0.008399744826
0.008400028655
0.008400033356
0.008400028654
0.00840003224
0.008400029672
0.008400033622
0.008400026182
0.008400030106
0.008400027751
0.008400030658
0.008400027758
0.008400030093
0.008400029064
0.008400030708
0.008400029395
0.00840002955
0.008400031167
0.008400031039
0.008400026673
0.008400026839
0.008400031334
0.00840002863
0.008400030046
0.008400031897
0.008400027703
0.008400030912
0.008396850129
0.008397058336
0.008398137335
0.008397636771
0.008394098902
0.008394023746
0.008397606577
0.008393072108
0.00839361945
0.008399255176
0.008398482728
0.008396678298
0.008399928958
0.008398419033
0.008398670447
0.008384438895
0.008395998485
0.008354014306
0.008393985255
0.008374149124
0.008368685842
0.00838941443
0.008393283386
0.008373017411
0.008398110899
0.008377009905
0.007722508514
0.00819297318
0.007068435511
0.007432528639
0.007503760925
0.008050974322
0.007914649816
0.00834451759
0.008055536517
0.007297445261
0.007940204227
0.008333903886
0.007088397918
0.008400026709
0.008400030109
0.008400030263
0.008400028812
0.008400031092
0.008400032681
0.008400033601
0.008400034452
0.008400032366
0.008400031242
0.008400031227
0.00840003373
0.008400034433
0.008400033805
0.008400033106
0.008400033531
0.008400031229
0.008400033696
0.008400033034
0.008400034157
0.008400030437
0.008400026682
0.008400033204
0.008400029448
0.00840003261
0.008400033281
0.008400031051
0.008400025496
0.008400034041
0.008400031772
0.008400028902
0.008400030831
0.008400031148
0.008400032512
0.0084000333
0.008400031315
0.008400032935
0.008398901985
0.008398565264
0.00839758469
0.008397389266
0.008398947521
0.008398538365
0.008389651183
0.00839896758
0.008396545848
0.00839810121
0.008397691913
0.00839762361
0.008390798838
0.008399128576
0.008396154125
0.008398457095
0.008395125919
0.008396190422
0.008113574551
0.008362689122
0.008396984337
0.008378239398
0.008394425118
0.008385439453
0.008362827453
0.008398061846
0.008397118999
0.00837433544
0.008373414655
0.008364540835
0.008369665186
0.008392154733
0.008380091745
0.008398818751
0.008358773469
0.00837294609
0.00838425852
0.008400030497
0.00840003092
0.008400031273
0.008400033327
0.008400028186
0.00840002869
0.008400030949
0.008400029392
0.008399980689
0.008400030761
0.008400027226
0.00840003145
0.00840002869
0.00840003303
0.008400031876
0.008400031589
0.008400026431
0.008400031502
0.008400023865
0.008400029337
0.008400031998
0.008400029548
0.008400032934
0.008400027419
0.008396684792
0.008397314733
0.008398252077
0.008396564786
0.008396825077
0.008396839442
0.008395678635
0.008398171992
0.008398560929
0.008395873283
0.008396472681
0.00839693499
0.008397120685
0.00839651484
0.008397055665
0.008395919543
0.008364997607
0.008355660865
0.008377733013
0.008383880902
0.008389258205
0.008386395677
0.008393534251
0.008361679321
0.008364098164
0.008380415262
0.008394377363
0.007195657579
0.008400034044
0.008400031427
0.008400032613
0.008400033355
0.00840003075
0.008400034422
0.008400030889
0.00839936352
0.008400033435
0.008400029823
0.00840003279
0.00840003419
0.00840002969
0.008400031618
0.008400028622
0.008400033041
0.008400033126
0.008400030185
0.008400029621
0.008400031631
0.008400032457
0.008400031317
0.008400032608
0.008400030453
0.008400029635
0.00840003122
0.008399399355
0.008396313622
0.008399443271
0.008397953179
0.008398494653
0.008398937318
0.008398410147
0.008399335805
0.008397713341
0.008399140339
0.00839745574
0.008397779658
0.008399246573
0.00838889623
0.008395742409
0.008372467738
0.008389661959
0.008376684163
0.008392513532
0.008394504369
0.008395829829
0.008368656212
0.008359517512
0.008388417583
0.008385030647
0.00694602035
0.007266527803
0.008014671446
0.00816347372
0.007493998702
0.008350514799
0.006858874253
0.006859208767
0.006818316555
0.006915798019
0.006805236644
0.006827376716
0.006825272972
0.006825028473
0.006824872735
0.006856680004
0.006835676807
0.006817257901
0.006860696824
0.00686071416
0.006816752438
0.00681837516
0.007157181514
0.006852792042
0.006854026005
0.00718481839
0.007863897748
0.006857481311
0.00680742865
0.006828197768
0.007197342896
0.007859886792
0.006816043839
0.006799120281
0.006801557438
0.006829750032
0.00681184749
0.006816427888
0.006798093126
0.006799753841
0.006817558574
0.00681634216
0.006793694494
0.006797105319
0.006808581282
0.006795336013
0.006798782282
0.006809085525
0.006815035549
0.00679855359
0.006801032529
0.006792110194
0.006812633055
0.006798977247
0.006800159286
0.006789775141
0.006796242762
0.006808359235
0.006816395227
0.006854579847
0.006852491568
0.006859505302
0.00683546695
0.006817600723
0.006851945593
0.006863488333
0.006830109961
0.006858818001
0.006847673417
0.006821981712
0.006858375095
0.006858177049
0.006820712278
0.006824581496
0.00681370433
0.006812733789
0.006818410802
0.006821764039
0.006815596556
0.006818200933
0.006836413407
0.006806513477
0.006818071144
0.006820834756
0.006812599113
0.006808407109
0.006815474918
0.006805490443
0.006823709716
0.006816338509
0.006823688459
0.006812708569
0.006820810629
0.006855485098
0.006832501558
0.006856001085
0.006858002175
0.006835341341
0.006824938115
0.006833672773
0.006858100627
0.006859964315
0.006863223581
0.006829928734
0.006838828186
0.006824993275
0.006865120314
0.006845951839
0.006858987519
0.006859092099
0.006854858648
0.006808657969
0.006817409339
0.006816895682
0.006814734569
0.006837269581
0.00681701214
0.006814267099
0.006817782618
0.006816775446
0.006805048904
0.006836211825
0.00682734786
0.006823176977
0.006818602684
0.006814071644
0.006867396364
0.006823046056
0.00685561232
0.006856976661
0.007079609124
0.006816565824
0.006856531341
0.006820373142
0.006849072215
0.006854500429
0.006813541638
0.006849559453
0.006821339588
0.006862325159
0.006822009481
0.006904877953
0.006906995422
0.006856785979
0.006846273581
0.006859909728
0.006859243171
0.007916725346
0.006853925823
0.006856902914
0.006822416975
0.006856953005
0.006819878197
0.006820779845
0.006816799146
0.006826981553
0.006803470752
0.006805669463
0.006820547661
0.006816380213
0.006803315662
0.006811831049
0.006816561304
0.006805435952
0.006802326143
0.006815848113
0.006805779438
0.006813820561
0.006811023201
0.006807931742
0.006817740427
0.006852810183
0.007083224393
0.006835389662
0.006845009942
0.006901111993
0.006864964899
0.006817080512
0.006850108331
0.00685338253
0.006820082928
0.006857081768
0.006963505242
0.007317106173
0.006809216087
0.006856998827
0.007090566079
0.006819424311
0.007560734207
0.006858973312
0.006851363895
0.006843172746
0.006829810532
0.006862152702
0.006839727209
0.006811740377
0.006833095014
0.006821355912
0.006824507275
0.006815991387
0.006817501757
0.006819707551
0.00681487662
0.006822909184
0.006831542628
0.006810775314
0.006811318118
0.006818533642
0.006822439147
0.006846714124
0.006820194763
0.006843137108
0.006854538997
0.006856409961
0.006821813261
0.00682766692
0.00685634041
0.006853250201
0.006827672764
0.006856707851
0.006856607545
0.006834212338
0.006824586439
0.006851202415
0.006830433916
0.006824251144
0.006813243281
0.006805945823
0.006827272969
0.006809117175
0.006812044882
0.006839139598
0.006821362949
0.006815551088
0.006808073124
0.006818610026
0.006816721619
0.006820825873
0.006835532543
0.006805030845
0.006812157977
0.006806973777
0.006806837559
0.006837082612
0.006847207126
0.006837220926
0.007125754634
0.006865864154
0.006833506138
0.006830557679
0.006864342122
0.006844599198
0.006822067113
0.00686032128
0.006858762111
0.006867779965
0.006869117727
0.006844104093
0.006852228981
0.00685196824
0.00691878719
0.006859252595
0.006818732756
0.006860149394
0.006821832972
0.006812819002
0.006861102005
0.006822179843
0.006827015082
0.006807227544
0.00684858104
0.006819603445
0.006856888315
0.00690740495
0.007144607218
0.006811866159
0.006830832464
0.006816888627
0.00682333785
0.006823344948
0.006812809552
0.006835083106
0.006834262432
0.00682695767
0.006807233155
0.006812077004
0.006811948237
0.00680335338
0.0068118067
0.006810991041
0.006814861205
0.006804197697
0.006809848278
0.006813936544
0.006807964453
0.006820868067
0.006816350589
0.006810177951
0.006807272601
0.006806806211
0.006821867284
0.006822486179
0.006804687094
0.006799863046
0.006811189245
0.006805108558
0.006851031635
0.00682181653
0.006831932371
0.006818392039
0.006853822449
0.006847663315
0.006849175442
0.006849749164
0.006841861905
0.00702027729
0.006835219421
0.006850967875
0.006825917721
0.006860539612
0.006840611232
0.0068085642
0.006822814452
0.006816088006
0.006817498714
0.006804065753
0.006814902282
0.006805881783
0.006817496562
0.00681907421
0.006808083497
0.006805614058
0.006813179527
0.006825713754
0.006830427552
0.006823602222
0.006828388569
0.006820051376
0.006832343129
0.006838838108
0.006881825734
0.006882307229
0.006818795944
0.006859195822
0.006853015437
0.006857927593
0.006834407934
0.006860855272
0.00686594831
0.006827963885
0.006848050075
0.006862737406
0.006851839568
0.00695462481
0.006821387026
0.006835915728
0.007483545069
0.006834900314
0.006828975403
0.006815654882
0.006800851895
0.006809628339
0.006809945461
0.00681372977
0.006814197137
0.006824550431
0.006842111003
0.006818326466
0.006823642381
0.006815043559
0.006810312702
0.006816902349
0.006810352445
0.006814284033
0.006816027533
0.006816086797
0.006827953206
0.006815465292
0.006817758778
0.006809354343
0.00685689959
0.006817418067
0.006857232556
0.006823595227
0.006852165448
0.006854703581
0.006818115414
0.006823108571
0.006819204118
0.00681637929
0.006848304846
0.006856143996
0.006814720815
0.006904177387
0.006820224816
0.006858588899
0.006849231324
0.006819506108
0.006824557927
0.006825775434
0.006863631663
0.006856254626
0.006816902389
0.006850528025
0.006864756103
0.006829483639
0.006831957025
0.006863101933
0.006866413584
0.006809006628
0.006815806417
0.006809532025
0.006813327433
0.006813154187
0.006805582243
0.00681428635
0.006813145665
0.006807187393
0.006809389134
0.006807939565
0.006815164855
0.006819950584
0.006807104919
0.006821018381
0.006822132257
0.00680546992
0.006811134815
0.006821403778
0.006826194477
0.006854825738
0.006860209583
0.006826060302
0.006835133771
0.006916447751
0.006828376043
0.006864875913
0.006814301899
0.006861112139
0.006827933311
0.006904180463
0.006860568193
0.00682665021
0.006841151074
0.006863809977
0.006861622217
0.006859931181
0.006827851636
0.006848700386
0.006822166421
0.006812164153
0.006819567814
0.00683061588
0.006830173613
0.00681930338
0.006829186815
0.006823236125
0.006818550775
0.006820145402
0.006819956177
0.006824263657
0.00683100379
0.006808890409
0.00684862107
0.00694413106
0.007674512391
0.006822233491
0.006855005399
0.00698607136
0.006817123057
0.006846193781
0.006854404632