/*--------------------------------*- C++ -*----------------------------------*\
  =========                 |
  \\      /  F ield         | OpenFOAM: The Open Source CFD Toolbox
   \\    /   O peration     | Website:  https://openfoam.org
    \\  /    A nd           | Version:  7
     \\/     M anipulation  |
\*---------------------------------------------------------------------------*/
FoamFile
{
    version     2.0;
    format      ascii;
    class       scalarField;
    location    "2/lagrangian/coalCloud1";
    object      dT;
}
// * * * * * * * * * * * * * * * * * * * * * * * * * * * * * * * * * * * * * //


2000
(
7.357768816e-10
-2.194322095e-10
1.834708065e-09
1.509324879e-09
8.942794092e-10
5.607541716e-10
-3.8444053e-09
7.830813661e-09
-2.427142903e-10
6.062429243e-08
3.89089446e-09
1.245248845e-07
-3.71400841e-09
1.014099106e-08
2.474815454e-09
6.10469467e-08
-2.797443456e-07
5.11629299e-08
-2.973277857e-08
2.725528197e-09
4.376983068e-10
1.962799502e-08
1.459937012e-08
-2.825713203e-08
4.935395208e-09
-6.622553366e-10
7.766758026e-11
-9.286736267e-10
2.643911468e-10
7.602536383e-10
6.705741128e-09
8.877382048e-10
-2.521103679e-09
1.504748844e-09
-1.663549149e-08
4.299643787e-09
-4.980887138e-10
5.361935713e-08
-2.615624981e-08
7.985469312e-09
9.309836321e-11
-3.617626189e-10
2.238238913e-07
-4.071209655e-08
-5.586173062e-10
5.4936827e-09
2.532951167e-09
1.731373123e-10
-2.959296504e-10
5.904994501e-09
4.294209036e-09
2.001308013e-09
3.984118645e-09
-1.280622683e-08
3.809849328e-09
-7.477841383e-10
6.515252347e-08
3.660483048e-08
4.604404217e-09
1.060439529e-09
-2.396140428e-07
-1.075248712e-07
2.764753505e-08
-1.905139388e-07
-2.577759049e-07
2.073749722e-07
5.669738524e-09
3.131656749e-07
4.536802592e-09
3.34966059e-07
2.181105775e-07
2.803439413e-08
1.060807559e-06
1.388470768e-06
1.082867807e-08
2.451489248e-06
6.767205724e-08
4.545640008e-07
4.812134847e-07
1.246297293e-08
2.160145933e-06
1.013221186e-08
-2.087714094e-08
-4.248755499e-07
5.011996961e-09
-8.734764689e-08
1.152863101e-07
-6.617292608e-09
6.2284489e-08
2.003143386e-08
4.126410014e-08
4.076944217e-09
8.376109548e-10
-3.905121179e-10
-4.937235458e-10
6.405593113e-10
-9.952194386e-11
-6.863080141e-10
8.009971098e-08
2.41291393e-07
6.017932078e-08
-4.403595594e-08
1.297898991e-07
2.463622482e-08
1.943989353e-08
3.263990474e-10
3.357960156e-10
1.811534215e-10
4.028581973e-10
-4.700794355e-07
-6.931507752e-07
5.445112077e-07
-3.205085697e-07
-4.139272083e-07
7.762921656e-08
2.377485064e-07
2.791972663e-07
1.996927418e-07
2.192269891e-09
3.531677326e-09
5.488702843e-10
-4.177671613e-10
1.748443207e-10
-5.952231457e-10
1.88076588e-09
9.522122902e-06
-1.179216851e-08
8.147104722e-06
7.08977592e-06
5.043825127e-07
2.517483249e-07
1.93733746e-07
2.216004416e-08
1.002661104e-08
1.350104858e-07
-3.930846824e-10
1.080734829e-07
-2.960832315e-11
-1.090057344e-09
1.448573085e-09
3.295429714e-11
-1.389601729e-09
-1.383553659e-10
5.682244187e-10
-3.709169216e-11
2.39319824e-09
-3.269291645e-10
-4.592159217e-11
-2.82281061e-10
2.467259575e-10
-8.604055993e-11
-4.199422504e-10
9.943094736e-10
7.65402897e-10
6.829376451e-09
-3.473250811e-10
3.503477269e-09
5.789475802e-10
1.138374417e-10
-5.117749764e-11
1.238482753e-09
-4.873972e-11
-5.967204905e-10
-1.045848465e-09
-2.077318371e-10
4.786130471e-10
1.011549609e-09
3.051960664e-09
1.125129067e-09
6.760684331e-07
1.709240293e-09
-3.846446072e-10
3.749968965e-09
1.370058151e-09
2.433352497e-09
1.893820461e-09
1.486641934e-08
-1.025016175e-10
9.136088083e-11
6.782580962e-07
3.446039907e-06
1.094693541e-06
1.60153602e-09
4.120640681e-07
2.082947621e-06
3.195947315e-06
1.055256835e-06
1.696797312e-06
1.996473528e-09
8.397307429e-07
3.292244475e-07
1.318189648e-07
6.399221248e-07
2.792049221e-09
-9.079363356e-11
1.148133766e-10
3.734481453e-10
4.059221684e-08
-1.28474846e-08
2.663232277e-10
-2.299782671e-08
3.933918713e-09
1.797664689e-08
-4.870453135e-08
1.360835983e-10
3.167868619e-09
1.452714883e-08
1.786174127e-08
1.657447051e-08
-4.426406289e-09
-1.847861569e-08
2.501918614e-09
-6.43535859e-08
3.053146944e-08
4.484230133e-08
2.825494782e-10
-6.251381573e-11
7.399030129e-09
-2.143195461e-08
1.236158029e-10
9.282291114e-10
-8.23608676e-09
3.53815313e-10
-2.122156092e-09
1.581054892e-08
3.811057659e-09
2.06578689e-09
2.402581081e-08
-1.690133979e-08
-7.728225907e-08
-6.578840333e-09
4.421092186e-08
2.244994952e-07
2.62123536e-08
7.712752929e-10
1.378086628e-10
2.506467385e-11
6.210128864e-10
1.663363403e-08
2.187429044e-09
8.309262558e-10
2.278601912e-10
3.267458397e-09
5.829076685e-11
1.243719207e-09
1.924596438e-08
-5.409277918e-10
3.562128421e-09
1.512310727e-08
-7.817062512e-09
1.464606212e-09
-1.208510863e-08
5.327769861e-09
2.04107184e-09
6.8923974e-09
1.932351406e-08
5.04744604e-09
2.462188558e-07
1.286726423e-08
1.635286372e-07
4.062037445e-07
1.256215868e-08
4.077719267e-07
4.013924456e-07
2.133749498e-08
8.15061502e-08
1.866535577e-08
7.505232886e-11
8.571449773e-09
3.854912832e-07
9.047590269e-09
3.226414917e-07
1.577168533e-08
1.73213699e-08
-1.747157486e-08
3.5852675e-08
1.64037986e-08
2.568652388e-08
5.007417108e-08
-2.725999926e-07
4.692827457e-08
1.478906484e-08
7.447881844e-09
-1.657324835e-09
-9.242941322e-08
4.416374227e-08
-2.684910828e-11
7.853424397e-08
-8.236607349e-09
-2.087092436e-09
-3.250138276e-09
-3.233513336e-08
-7.248649453e-09
-8.009754651e-12
2.895289988e-08
1.748578965e-08
6.058306777e-08
-1.340496249e-08
3.319178667e-09
4.103845404e-09
-4.619094137e-09
-7.76072826e-09
4.103558641e-08
4.398895955e-09
3.020526727e-09
1.705294804e-08
3.119340419e-08
3.481038032e-09
3.480097741e-08
-2.935145712e-09
3.661925656e-09
8.063111169e-10
7.675305597e-09
9.543432863e-07
8.228530869e-09
3.416336341e-07
1.37691897e-09
9.024179461e-07
1.228778092e-06
3.136481765e-09
7.228729887e-09
5.709393879e-07
1.611719964e-06
2.387030322e-08
3.564816469e-07
2.154932393e-10
1.656319299e-06
6.167731051e-07
5.11277277e-07
3.921148082e-09
3.119888678e-06
-1.470126148e-10
-9.415345071e-10
-9.626107714e-10
-3.743523894e-10
-2.149636024e-10
2.970116083e-09
5.427757064e-09
3.856488262e-10
7.790698889e-09
-2.584431352e-08
3.289404437e-08
2.011379405e-08
-1.889158157e-09
-5.647438578e-08
2.637718975e-08
-2.081746842e-10
-1.607972859e-11
-1.56174025e-10
2.906768965e-10
7.05452063e-11
-5.70813646e-10
-3.385437348e-09
1.692063146e-09
3.704984752e-08
2.367916205e-09
-4.37352452e-08
-8.038813977e-08
-1.060737422e-08
-4.200385092e-08
1.947062926e-08
2.158106259e-09
-2.815469762e-10
-2.577147572e-10
-5.858575466e-10
1.280761575e-09
3.997635406e-08
4.369045578e-09
4.61511888e-09
-1.205013491e-09
1.77619376e-08
-1.304364421e-08
2.389287371e-08
1.392372438e-08
8.377028483e-09
7.464057431e-09
1.841728882e-09
2.046545286e-09
7.742683038e-09
2.34662523e-07
1.663527252e-08
5.524634364e-09
1.110972789e-06
3.7951366e-07
4.180920358e-08
3.677759935e-07
3.827869417e-09
3.104906852e-09
1.08450659e-06
6.776219466e-09
3.211730608e-09
1.11557079e-08
8.610055757e-10
-5.301348539e-10
-8.54649431e-10
3.845486901e-09
1.568039468e-08
2.717541029e-10
-4.005237752e-10
3.331186903e-09
4.815332356e-10
5.729661706e-11
1.139777928e-08
1.364142901e-09
-2.534100931e-10
1.46185829e-09
2.197772659e-09
-7.344146588e-10
2.93567627e-08
-3.261087347e-10
5.701042686e-09
3.435213043e-09
5.959725085e-10
2.306662223e-08
4.862019356e-08
2.126310683e-08
2.230786583e-10
2.287018025e-08
3.208007616e-08
8.240727949e-10
-9.58994034e-10
-4.496591597e-10
3.768795863e-08
2.065092727e-10
-9.314527947e-10
-1.749184077e-09
-1.809539152e-10
-3.034612898e-10
2.399642105e-09
-6.783811806e-10
1.9114513e-09
6.675529639e-09
5.735204964e-09
2.631160749e-08
7.292651002e-10
-9.926585153e-10
-1.211775282e-09
-2.605296923e-10
1.351777675e-08
-4.239363006e-10
7.026207044e-09
6.147528377e-09
1.714363564e-09
1.384131198e-10
4.699235687e-09
1.444707012e-09
1.168998604e-09
1.894792956e-09
1.063044468e-12
1.226782075e-09
-1.496015487e-09
-1.782879292e-09
2.341781683e-08
7.964138166e-09
1.228742037e-08
1.655883656e-07
3.265694992e-06
8.025118547e-09
4.849749992e-09
1.234131942e-07
1.808022924e-08
7.506605148e-07
2.581069183e-08
1.692481106e-09
7.362758424e-07
1.678803015e-08
3.300914353e-08
1.521469438e-08
3.969366323e-08
6.47065346e-08
1.903549756e-06
6.569191952e-09
1.952733591e-09
8.349275305e-09
-2.713357155e-10
4.122823016e-09
2.060695007e-09
-1.960255087e-08
-7.407081991e-09
7.895534371e-08
1.898487391e-08
-7.050300039e-08
3.027574825e-08
-3.510008878e-08
-1.027182347e-08
2.862533225e-08
1.375486961e-08
8.756626398e-09
2.109273406e-08
5.913376954e-10
-1.502100428e-08
2.714068165e-08
1.746005437e-08
6.675636075e-08
-1.27008725e-07
3.32017917e-08
-4.537704156e-09
7.884659884e-10
5.343801617e-08
1.534768758e-09
2.769004257e-08
5.810582523e-08
3.393646719e-08
-3.26127277e-08
5.397725178e-06
2.551453929e-08
-2.379784063e-08
3.281506197e-08
-5.220398125e-08
6.13908081e-07
5.190492496e-08
4.741154213e-08
1.464358637e-07
1.622816156e-07
2.340702293e-08
2.290468145e-06
6.828278318e-07
1.063658404e-07
1.267701938e-07
4.578390601e-06
8.540627505e-07
2.9898433e-06
1.82114671e-05
1.400152159e-07
5.487548248e-09
-7.193893021e-08
-2.135388273e-07
-1.163479506e-08
-8.08434833e-08
-1.561692106e-08
-3.013766763e-08
1.6025658e-08
1.38235074e-08
2.296802599e-07
-1.445369514e-08
4.483129907e-08
1.994819042e-07
-3.318565154e-09
-8.212552605e-09
5.957561957e-08
-3.168816333e-08
8.088928878e-08
-9.71759197e-09
1.16818205e-09
-1.149578308e-07
-8.044913418e-09
2.882368594e-07
-9.237720543e-09
8.711346579e-09
2.491758202e-07
1.221052912e-07
1.591232284e-08
1.718810702e-08
8.191072133e-08
2.934038479e-08
4.619646649e-08
4.479403784e-09
1.037273107e-08
2.925416661e-07
-8.078251816e-07
4.654429792e-08
7.145033641e-07
3.167487186e-07
1.298273376e-07
1.038946848e-05
3.489620958e-09
4.508050818e-08
4.127380753e-08
1.173987715e-09
1.038096209e-08
1.64147524e-07
1.765858145e-07
2.664505787e-07
6.680839658e-07
-8.455685708e-07
4.405239548e-06
6.764017885e-06
1.612157919e-07
7.45211755e-07
-3.242190178e-05
-3.787831228e-08
-5.236138667e-08
-3.327354658e-07
-7.205537022e-08
5.409579855e-08
-5.76980442e-08
1.39952467e-08
3.968830296e-08
-2.316221734e-10
2.758058873e-11
5.536909481e-08
4.511797047e-09
1.262444067e-07
-2.731918619e-07
-5.989757831e-10
1.239166093e-09
1.318582952e-11
1.822781042e-08
3.973003967e-08
-5.049166158e-10
4.233682878e-09
8.307141746e-08
1.94157925e-09
-1.948544055e-08
2.254606148e-08
-5.802813848e-08
-1.30375197e-07
-9.988481991e-08
-4.739697688e-09
8.447011773e-09
-9.522244688e-08
-1.401332205e-11
2.383763863e-10
1.86793822e-08
8.194491374e-08
1.700906642e-08
-2.380979724e-10
2.253157761e-10
1.49472355e-08
-9.4548304e-08
-7.741274484e-08
3.779578308e-08
6.055914018e-09
3.75378622e-10
2.917297003e-08
-1.275458369e-07
1.27135328e-08
1.223011136e-08
4.972408008e-10
6.792848604e-09
1.559222225e-08
1.660160889e-08
3.401564157e-08
8.265034383e-08
9.084915148e-09
2.895434211e-09
1.157039425e-08
-8.160228445e-10
1.611326872e-09
1.665830969e-08
2.02202126e-07
6.520835677e-08
2.32423982e-06
2.869164834e-08
1.227156054e-07
1.645912034e-07
1.941674926e-06
2.241273277e-06
8.254695498e-09
3.862966854e-06
7.876657158e-09
1.695548692e-06
2.167693672e-06
8.32785368e-07
8.74418681e-09
8.841891238e-07
1.077581658e-06
3.915249368e-08
3.516746549e-06
1.669631453e-07
5.284486076e-06
1.106110391e-05
5.39684398e-08
4.646094648e-09
-3.461147501e-10
2.796528114e-09
1.243808336e-08
2.122526887e-09
5.447873714e-08
-2.973572835e-10
-1.813530816e-09
-4.589025879e-10
2.002540457e-08
5.415709609e-09
1.266921999e-10
-4.900766433e-09
1.722301593e-08
-1.000000354e-07
3.562666969e-08
5.95704714e-09
-9.457546663e-08
7.639834947e-09
1.42258748e-09
-4.221952738e-10
1.857788715e-10
4.318312417e-08
5.01446423e-10
3.974611347e-08
-3.127934225e-09
-8.900199186e-10
-5.682574841e-09
5.614339561e-08
5.096090131e-08
-7.007750745e-08
6.630431519e-08
1.52133812e-09
-9.38411832e-10
1.365254101e-08
3.661737099e-10
-3.161732727e-10
9.46584994e-09
3.969027402e-08
-1.913120523e-09
-5.883051477e-10
5.753927163e-09
2.558208834e-08
1.0856152e-08
1.444031294e-06
2.177296901e-06
5.287318098e-07
3.387651787e-08
1.115086369e-07
4.214483642e-09
2.812976355e-08
7.116491115e-08
2.640773989e-08
5.885247472e-08
4.593769298e-08
1.317409166e-08
0
1.409805841e-07
-1.40161838e-07
-1.397580366e-07
3.235547381e-08
1.68139721e-07
8.128137395e-08
8.015584859e-09
-2.403020067e-09
2.455088236e-09
1.873193637e-11
-7.814268167e-09
-6.00868897e-09
6.202664239e-09
-6.966998919e-09
-6.327304983e-09
2.6617574e-10
-3.274429858e-08
-2.194082586e-07
-3.39079116e-07
9.113156376e-09
-4.487888872e-10
1.917038046e-08
2.668213554e-08
2.723136944e-07
7.314783236e-08
-4.601351868e-10
1.865313064e-07
3.052444059e-08
-1.059190136e-08
1.595628989e-07
2.88092604e-09
1.472542563e-07
3.811505269e-09
5.557500351e-08
7.842917094e-09
1.778949792e-09
1.112485034e-07
2.402933453e-07
-1.099630363e-07
-8.389523893e-07
1.770473721e-07
-3.830787673e-07
1.814226135e-07
4.750307533e-09
6.881011308e-08
4.015606062e-08
6.053134725e-09
5.481741379e-08
3.822417695e-07
8.542888199e-06
9.787119455e-08
-2.538529795e-07
-2.192063626e-07
2.614542094e-09
1.059458162e-06
4.936399694e-07
9.369004146e-06
5.204014865e-09
4.723105325e-06
1.122287658e-06
2.835930379e-06
9.281871763e-07
2.948671223e-06
1.253650657e-06
1.962692073e-06
1.938069274e-06
-4.492273234e-06
1.509176521e-05
-6.461784817e-06
2.668918093e-07
2.33982333e-06
0.0005917824147
0.0005330004404
0.0002423871235
0.0003229768668
0.0006478159045
0.0003052999817
0.0002767816473
0.0001682708995
0.0005416959902
7.298936691e-05
0.0005700307223
0.000257246799
0.0001480053616
0.0001635280761
0.0006476738919
0.0003825329871
0.0004134205194
0.0002168636248
0.008642278419
-0.0006099655271
-0.000248815957
-0.0004919145545
0.01092176992
-3.440066367e-05
-0.0004882569327
0.009276881489
-0.0005100743647
-5.992607275e-05
0.0004403810347
0.000674968559
-0.0003228514716
0.0005829346404
0.0004726727561
-0.0003776342659
-0.0002144770714
0.003995318877
0.01287523931
0.0643958209
0.00684013032
0.09724519136
0.06926769562
0.09422249938
0.01215256438
0.08070467932
0.07110715715
0.02523072877
0.09355979616
0.07064256647
0.1370630068
0.09249789796
0.03646992087
0.0650386035
-2.070860869e-05
1.434993776e-06
4.721840805e-07
-1.950004764e-08
3.364135442e-06
1.241900957e-06
4.207757051e-07
2.92837079e-06
2.995187131e-06
1.787945569e-07
-2.917907265e-06
0.0003320529367
0.0002868126171
0.0001451983155
0.0002056340795
0.000122285329
0.0003341237792
0.0004268285839
0.0003394994734
4.162087915e-06
0.0001881560889
0.0002608312018
0.0002351999982
0.0007077993321
0.0001966029624
0.0008323066527
0.0005439586586
0.0005003055176
0.001620903834
-0.0003976077766
0.0003908034092
-0.0002823862357
0.001132327321
0.0001458457339
0.0008899183837
0.0005859007523
-0.0001398269945
0.0009493071047
0.00943404777
0.003567298834
-0.0005016753582
0.04352806815
0.07393924465
0.1282967989
0.07668902181
0.03234353482
0.03155718406
0.09940336801
0.06368070515
0.07089464783
0.01612693569
0.07793210715
0.05083235348
6.112028054e-07
2.148652132e-07
3.583280191e-06
1.599493196e-05
-7.892852827e-07
-3.192795126e-07
-2.121637065e-06
-2.935760854e-06
1.258172834e-06
4.416596895e-06
-9.688464004e-07
0.0003693966268
7.563805099e-07
0.0005509128413
0.0009194642842
7.740524109e-06
0.0001102412658
2.731196067e-06
5.155399351e-05
0.0002456306984
2.863845283e-06
0.0007577375204
5.206523237e-06
0.0006723328589
1.534779498e-06
0.0007357439949
-0.0006065638906
0.0005193936129
-0.0007449851399
-0.0001235101807
0.0003172269714
0.0006249018799
0.0009814923884
-0.0003084831389
-0.0001023926208
0.0001715411892
0.05220133381
0.09664682976
0.0563340832
0.06058915176
0.0943157912
0.0004322243381
0.06553303058
0.02622231294
0.07061971936
0.04601846995
7.804912073e-06
0.03639848567
0.08391416343
0.04288729013
0.0429455093
-0.01215213105
0.04302843031
0.01612271304
0.02990432826
-0.01012300911
0.1312290329
0.01902395405
0.03826614505
-0.007028133227
0.001656400124
5.368375081e-07
1.669444703e-06
1.452598692e-06
4.01603861e-06
0.0003467403491
2.33934346e-06
7.713949304e-09
0.0002041670809
3.476530935e-07
3.951577018e-06
-2.915922586e-07
9.766277269e-07
1.108594516e-06
7.750675618e-07
4.810615755e-09
1.408432204e-06
3.572848564e-06
-1.561202446e-07
0.0006237920242
0.0002413252393
0.0002638103265
0.0003849338498
0.0004708542681
0.0003776779636
1.586311416e-06
0.0003623839833
0.0001274893518
0.0001173467494
0.0007818252774
0.0006058438926
0.0007289861465
0.0001641241462
0.0002198800308
0.0002433675549
0.0004984662193
0.0001003309708
0.0006175193006
0.0003686782403
-0.0001889226397
-0.0003914624441
0.0003289747542
-0.0001325553511
-0.0008781006819
0.0009476137739
0.0009688931875
0.001868647834
-0.0001134542067
-0.0003453852222
0.04092073331
-0.0006070497128
1.579185281e-05
0.0006205754727
0.01136130432
0.0001752785415
0.01197961342
0.001032006249
0.003214241865
0.0006578359856
-0.000733287249
0.01887082604
0.1426268532
0.07417018913
0.05213311167
0.09132635863
0.04705435056
0.06047033042
0.09566218992
0.07009160715
0.1035225559
0.01353092801
0.02908752921
0.08057415222
0.1285419002
0.1717286233
0.09829305925
0.08000703183
0.09721377563
4.698070716e-06
-3.08054103e-06
1.087525783e-06
0.0002167614429
5.141634545e-06
9.477672479e-07
-2.703286587e-06
0.0001769319776
2.672966587e-06
-1.547960954e-06
-1.494964017e-07
6.655777092e-07
-7.564840668e-06
0.0001258915503
0.0004895591097
0.0002917338474
0.0006097111975
0.000211727822
0.0008555380613
0.0001340154997
0.0001276224792
0.0002533638992
0.0001758068611
0.0003169654486
0.0002306188477
0.0007145075353
0.0007077701647
0.0008987260391
0.0002901463793
-0.0004639538318
5.41737509e-05
-0.0001541307579
0.02406739789
-2.574546675e-05
-0.000184953372
0.05196457303
0.06153119158
0.1041826437
0.0912296023
0.06603240686
0.03876575426
0.09870742543
0.0558154297
0.05732059109
0.0008924726779
0.04251268734
0.00125814849
0.03888208823
0.009329055293
0.04432628628
5.062766694e-07
3.672521624e-07
1.117931752e-06
1.886596089e-06
0.0002657158357
4.697541712e-06
3.57418513e-06
0.0002264501498
1.112962053e-06
8.955346187e-05
-5.681800951e-07
5.692769435e-07
3.163393225e-06
1.4835175e-06
8.04595152e-07
0.0006492333188
0.0001314525351
0.0001416421057
0.0007759287764
0.0003038618183
0.0005747607264
0.0007216610325
4.974677956e-06
2.490257931e-05
0.0002857910174
0.0008237174401
-0.0004427491201
0.000213345961
-0.0004660748908
0.0003254380767
0.0003179282207
-6.717782909e-05
-0.0002550347961
-0.0006239543548
0.0006574846556
0.0009468891124
0.0004776110414
0.1027157213
0.09269074436
0.1005500314
0.05790475918
0.06328902094
0.07869496932
0.03215679249
0.02368068243
0.05021011117
0.08362653336
0.1176113473
0.07056096815
0.0238996356
0.1075506968
-0.00877302193
-0.003887227257
0.000253096565
2.645378156e-06
6.073071591e-06
2.9726093e-06
1.988243217e-06
2.753816827e-06
2.155500899e-06
4.817924049e-07
4.649947397e-06
1.630506084e-07
0.0002901484028
2.71400526e-06
5.4035992e-06
3.1752664e-06
2.233967087e-05
0.0003354183496
0.0003278129249
0.0007718232807
0.0004761925201
0.0003027350619
0.0002955083459
0.0009227671153
0.0001752447336
0.0003862015094
0.0003510680441
0.000484491735
0.0007544681473
0.001128970901
0.0002000678599
0.0005014397398
0.0005017022037
3.838649544e-06
0.0008494551967
0.0004437867759
-3.741666725e-05
0.0001093793336
0.0001898566525
-0.0008101512021
0.0003085004045
0.0123014008
-0.0005408214839
0.0006193318658
0.003806096259
-0.0002944122568
-0.0001197055031
-0.0005815912353
0.004036245101
0.003303852842
-0.0002485810279
0.001256463423
0.0008841579335
-0.0004725235846
0.001008388069
0.05130292436
0.100105903
0.04735779174
0.003206240864
0.02103071556
0.1251950871
0.07876305188
0.01012726319
0.09215338187
0.0618656709
0.03698421091
0.1091835658
0.0004582965451
0.121761312
0.06959590347
0.007802377272
-5.921337801e-06
2.179818758e-05
5.854906401e-07
2.621603924e-06
7.865978478e-06
1.994249083e-06
-7.425590506e-06
7.516900456e-07
1.67012857e-06
-5.28155802e-06
-8.466298185e-07
8.405822871e-07
-5.549666086e-07
1.782085567e-07
0.0006734527197
0.0007476167716
7.402109184e-05
0.0004344526476
9.938045924e-05
0.0002863552806
0.0002783597163
0.0004663777752
8.059502314e-05
0.0004163725533
0.0002844616785
0.000200668397
0.0002525817757
0.0001641355688
0.008357657571
0.0001886648222
-0.0003146857865
-0.0001396015113
-7.059941821e-05
-0.0001286293506
-4.518060923e-05
-0.000349343622
-0.0002143731791
0.01423391128
0.01127246256
0.06430302065
0.07954938134
0.05210265686
0.01202450579
0.1305273612
0.02076987787
0.07000034986
0.08363103281
0.06622545473
0.02321645114
0.07666115371
0.06252460358
1.537612175e-07
-4.893015958e-05
1.47397475e-06
3.727244621e-06
6.500849213e-07
1.782108765e-06
1.933335445e-07
1.591042694e-07
5.791462684e-07
-2.185040176e-07
8.100103787e-07
1.417128781e-06
3.766970037e-06
7.83198001e-09
9.111383078e-06
0.0004160607754
0.0006692445843
0.0002781476535
0.0002589461798
0.0002985287061
0.0002076406971
0.0002750867851
0.0001327169004
0.0001299912928
0.0001470544101
0.0003854339051
0.0003342169642
0.0002244039631
-0.0006259603322
0.006470310066
-0.000142190197
-0.0002598673502
-0.0007650613308
-0.0002853356815
3.22160745e-05
0.009122880954
0.007883820396
0.0003877881605
-0.0001905222711
0.03275072243
0.0003595616366
-0.000209810217
0.0002666986947
0.02626202504
0.006768151606
0.06293213364
0.0809482515
0.08727495854
0.07178468772
0.05711058743
0.05044776913
0.0728831783
0.008135873562
0.09211785337
0.05146323454
0.1325167411
0.007465620381
0.02565995176
0.08231130493
0.09960743478
0.06438260503
0.08721983969
0.1156704114
0.007948824894
0.03752226197
0.112161781
-0.002757121946
-2.257959539e-06
-6.310473146e-06
2.891700684e-06
0.0003308095056
-2.513700435e-06
2.214353676e-06
1.588026234e-06
-2.330638939e-06
-1.404849396e-06
2.735249988e-06
-5.398446018e-06
-1.40386536e-06
3.347180928e-06
2.534004975e-06
0.0002727100536
3.989746826e-06
1.094249255e-05
2.009460197e-07
8.686559258e-07
7.622796831e-07
3.09418956e-06
8.902500129e-05
0.0002980245519
0.0006619640594
0.00029874531
5.978907439e-05
0.001320399151
0.0006833917539
0.000287068299
0.0005446777579
0.0002038998282
0.0003372425115
0.0007443918903
0.0006946814482
4.33960519e-06
0.000386595223
0.0002256215849
0.0001460712385
-0.0002288293907
-0.0007619249114
-6.182165275e-05
-0.0002381664731
0.0001845555441
0.03978640156
0.0003686679042
0.01010226637
-0.0003619429033
-0.0003029002394
-8.73080692e-05
0.04755782941
-0.000321260286
0.0008864184984
-0.0002241474961
0.003532742415
0.0006343487838
0.03110540579
0.08889759717
0.03835050551
0.05375146762
0.03285521527
0.03444445111
0.1425026161
0.01913151826
0.007631765021
0.08966743381
0.06259486149
0.1014509565
0.09070703197
0.05469899005
0.07593919062
0.004071590792
0.1172527493
0.08237239736
0.003391698246
2.236032622e-06
2.702536267e-06
2.063148419e-06
0.0003980181949
4.545135799e-07
2.976598633e-06
9.531034209e-07
1.195726289e-06
1.83923039e-06
3.037069348e-06
6.917277829e-07
0.000243906377
0.0003673969759
0.0001246682689
0.0001880663606
0.0002999713856
0.0003744474711
0.0002819437162
2.027413411e-06
0.0002642831049
0.0005229247875
0.0008333293644
0.0005112888764
0.0006528848437
-0.0004506239687
0.009738899389
8.980559648e-05
-0.0002317809642
-0.0004137953588
-8.878643324e-05
0.03019038784
-0.0003474924676
0.001007096805
0.02690090831
-0.0007858711216
-0.0001587857148
-0.0003701016804
0.005984793848
0.005438889297
0.008977446462
0.1108461992
0.1291282273
0.06441238803
0.05760597367
0.03723596611
0.09645954377
0.04633165629
0.1255908446
0.06343088356
0.06380548732
-2.496505198e-05
0.02899782171
3.411251763e-06
1.750560478e-06
2.608444374e-06
3.581843104e-07
1.533690445e-06
7.751992956e-07
0.0001631927934
-3.293086365e-05
8.151773439e-07
7.153858475e-07
1.555807754e-05
3.037572118e-06
4.751604545e-07
0.0001236991923
0.0001581986422
0.0004745538616
0.0004216317356
0.0003714824132
0.0004994796346
0.0002198813464
0.0001094140232
0.0006713379905
0.0001913450949
0.00057075881
0.0003997513099
3.088721287e-06
-5.680867234e-05
-0.0002792507694
-7.825345697e-05
0.004600788306
-0.0005510486734
0.02744251979
6.917658348e-05
2.773975419e-05
-0.0005142167295
0.0006319798908
0.0006140268215
-8.807245794e-05
0.0006684757966
0.1133579988
0.02262927328
0.07439632809
0.05519634262
0.02467698847
0.06636690163
0.02851731411
0.02098611077
0.1158852478
0.05183563533
0.03584022619
0.08803348851
-0.01202389708
0.01613778632
0.04206392103
0.09085165601
0.01008736989
0.1086209381
-0.0521594199
-0.08436712815
-0.003606390575
-0.04529278509
-0.03541940157
-0.0303040436
-0.06046905327
-0.03345939909
-0.04484414816
-0.02950827455
-0.0416934877
-0.02850935573
-0.0380936844
-0.08050587559
-0.02045693315
-0.04588744522
-0.03295469709
-0.05637319684
-0.07428765339
-0.02384255747
-0.009645572961
-0.07825932603
-0.0007160278931
-0.03536712125
-0.01039057172
0.0094327917
-9.880358985e-05
-0.0002117823417
-0.0009569715185
-0.0001319147249
-0.0003340778562
-0.0003799585467
-0.0001717595809
-0.000188828754
-0.0004664632092
-0.0001554143655
-0.0002937262506
-0.0003639222505
-2.270743771e-05
-0.0002818778088
-0.0001645144787
-0.0003448789267
-0.02138035055
-0.0004203950366
-0.01439821847
-7.478311921e-05
-0.01389349462
-3.649632493e-05
-0.0003586953949
-8.443396462e-05
-0.006084347641
-0.0005188972052
-0.0002055768021
-0.04812499901
-0.04879732055
-0.05642549441
-0.0623247752
-0.03138834596
-0.05935684149
-0.05505307678
-0.03438864736
-0.06286466666
-0.03520228603
-0.03677507902
-0.06183026906
-0.04226694359
-0.03608112492
-0.03308239316
-0.01464552532
-2.275628522e-05
-0.0005659362148
-0.0001030439725
-6.860186139e-05
-0.0003367572289
-0.0001881954558
-0.0004008541642
-0.0002882310462
-8.868667199e-05
-4.55665644e-05
-0.0004172388636
-0.0002395164801
-0.0003969234713
-5.502466976e-05
-3.570035515e-05
-0.0004235968442
-0.01833443579
-0.003672601423
-0.03558878612
-0.04783275038
-0.03046712705
-0.07212567866
-0.05121096806
-0.0003185548176
-0.03271168524
-0.06754681727
-0.02872437604
-0.07352380222
-0.0003418391151
-0.0342665307
-0.01372685178
-0.1003780139
-0.03678566327
-0.04214828672
-0.06888240569
-0.03851468318
-0.0003166921242
-0.0001908963125
-0.0005884202695
-0.0002829205094
-0.0002106306509
-0.0003104785783
-0.02253240161
-0.0002323192039
4.784809338e-05
-0.001242284025
-0.0002203536074
-0.0002715996704
-0.01287395077
-0.0002994995949
-0.0007082560188
-2.477185165e-05
-0.03060606373
-0.08222354512
-0.06569373504
-0.04445918019
-0.03451610035
-0.03371050088
-0.0007459008269
-0.05227155345
-0.05861435118
-0.03423161083
-0.06367873551
-0.04395466905
-0.05447042898
-0.00202548205
-0.03307657025
-0.03371504416
-0.03632074766
-0.02872448477
-0.08074618122
-0.09357114137
0.01357046203
-0.07562486653
-0.05547381791
-0.02877084153
-0.05599439907
-0.03422622241
-0.02433463913
-0.0005281361683
2.579835941e-05
-0.0004186252029
-0.0003501141784
-0.02963281971
-0.001717433118
-0.0001027154391
-0.0003673160785
-0.001980845292
-0.01098674461
-0.0005336998412
-0.000473485584
-0.0006428592758
-0.0003071190926
-6.314603259e-05
-0.02604453221
-0.0002630694456
-0.05238319475
-0.03533262696
-0.005290696491
-0.05725996227
-0.04100889188
-0.0575081485
-0.03251092654
-0.06200519528
-0.09132093957
-0.00317864672
-0.06184860057
-0.01606534862
-0.01438876727
-0.0002777969425
-0.05940014754
-0.01391078775
-0.0158153051
-0.01590132482
-0.03380349747
-0.09292872169
-0.0373514003
-0.01362282495
-0.03768256102
-6.054645955e-05
-0.0003198003588
-0.0002392991379
-0.0001589086136
-0.0005085682507
-0.0002335340728
-0.0002595521279
-0.003610142263
-1.073288863e-05
-0.0007828264461
-0.0001946018774
-0.0004493759162
-0.0003932615177
-0.0001995626085
-0.0004160062103
-0.0001421928532
-0.06682545668
-0.03383101879
-0.0602970507
-0.0629616079
-0.06617777092
-0.005198069367
-0.07510016542
-0.02889908189
-0.03283609685
-0.07455870864
-0.08083505052
-0.04284070902
-0.02221432468
-0.07798265591
-0.04977863626
2.696204141e-05
-0.0003760403217
-0.0004404704929
-2.487950062e-05
-0.0003149782311
-9.816419596e-05
-0.02796326308
-0.009146552923
-6.911794053e-05
-0.000398117377
-0.0001377728955
-0.0004275369994
-0.0004827486912
2.294236127e-05
-0.0006234071206
-5.318973e-05
-0.0004038070681
-0.0006113648799
3.95543769e-05
-0.0001291070769
-0.03834172649
-0.01761678891
-0.1047331341
-0.006209340559
-0.006019595597
-0.07676465259
-0.0262991996
-0.02074499269
-0.03708060359
-0.03246022779
-0.08532625281
-0.07526417596
-7.111649433e-05
-0.04860730397
-0.04079499663
-0.04093577473
-0.07632639385
-0.002495746157
-0.08894199316
-0.04151736781
-0.03981604565
-0.08434008156
-0.03093627269
-0.02372387156
-0.02147796981
-0.05596323747
-0.06551330921
-0.1065425348
-0.03663063533
-0.0507631914
-0.05672370693
-0.08341057659
-0.02416952032
-2.236389478e-05
-0.0001786553295
-0.008564236909
-0.0001395566975
-0.0002465943417
-0.0002942757359
-0.0002521574315
-0.0003057756616
-0.001048134377
-0.003263792853
-5.140031116e-05
-0.0001720999478
-0.0003700776871
-0.0002242607942
-0.0001428574251
-4.812564802e-05
-0.03370783397
2.822369493e-06
-0.000280430985
-0.02846780688
-7.072201451e-05
-0.0003705495411
-0.003535097045
-3.046794605e-05
-0.006813621432
-5.438513519e-05
-3.12696832e-05
-0.0001018241511
-0.0001013683884
-0.02266902963
-0.06300270016
-0.09692188232
-0.07480629871
-0.03536188155
-0.06206723963
-0.06921829646
-0.03388295453
-0.05007968265
-0.04674797021
-0.03705521928
-0.005484650335
-0.06303620152
-0.05607998919
-0.0001857573447
-6.336258096e-05
9.909801179e-05
3.144079967e-05
-0.02098456067
-5.116186186e-05
-0.0004055542796
-0.0005867803657
-0.0001150982809
-3.022464707e-05
-0.0005649608069
-0.02574664929
0.0001152407534
5.475137066e-05
-0.0002850555314
-0.02327440718
9.93234235e-05
0.0004742932998
-0.0002553789607
-0.0005142238263
-0.0008136333141
-0.0242554536
-0.05436667879
-0.05480338034
-0.02852112093
-0.0466281298
-0.06578854487
-0.08407731036
-0.02683107836
-0.03419555464
-0.0507401331
-0.04145887131
-0.02561046167
-0.004576397692
-0.02614935702
-0.01921902644
-0.04250917886
0.0002626238744