/*--------------------------------*- C++ -*----------------------------------*\
  =========                 |
  \\      /  F ield         | OpenFOAM: The Open Source CFD Toolbox
   \\    /   O peration     | Website:  https://openfoam.org
    \\  /    A nd           | Version:  7
     \\/     M anipulation  |
\*---------------------------------------------------------------------------*/
FoamFile
{
    version     2.0;
    format      ascii;
    class       vectorField;
    location    "2/lagrangian/coalCloud1";
    object      f;
}
// * * * * * * * * * * * * * * * * * * * * * * * * * * * * * * * * * * * * * //


2000
(
(-0.000551895658 -0.0002797114398 0.003072466061)
(-0.0002229032096 -0.000228890651 -0.01272059183)
(0.0001685513581 -0.0002913225941 -0.006269352373)
(4.643473997e-05 0.0002518104992 -0.01795887902)
(0.0001508357277 0.0002108891924 -0.004812610317)
(0.0006967787236 0.0003715638036 -0.04818702375)
(0.0001017274665 0.0004811951618 -0.01141549864)
(8.484536066e-05 4.600427948e-05 -0.03387027913)
(-0.0001100012729 -0.0001940780127 -0.03067032669)
(0.0002634929219 -0.001319866068 -0.04510815307)
(9.173577279e-05 0.0006576305599 0.003749648553)
(-0.000199741393 0.0002888046189 0.002630002424)
(6.449689187e-06 -2.803283578e-05 -0.02337852521)
(-0.0001823077149 0.0001050669444 0.003169248426)
(0.0001269574073 -0.0001942449683 -0.009599377096)
(-0.0001206901696 0.0001607339885 -0.04059399984)
(-0.000115177089 -3.9854412e-05 -0.01258414954)
(0.0004849157822 8.050003836e-05 0.003790135968)
(-0.0004065004689 0.0007301222725 0.003964068107)
(7.128553843e-05 -3.94112185e-05 -0.005065236836)
(7.355671184e-05 4.279948447e-05 0.003498922915)
(-0.0002105560767 0.0004108986233 -0.01541375962)
(0.0001988461529 -6.232813374e-05 -0.03757323454)
(-6.923246459e-05 -0.0002751219758 -0.04825567174)
(-6.881551753e-05 0.0002223484695 0.003603254862)
(-0.0001540421969 0.0002738472105 -0.01989640694)
(0.0002084868549 0.0003411685396 0.003047380763)
(0.0008258078966 0.0001552246198 0.002802359627)
(-0.000333603366 -0.0001721802311 0.003148959959)
(-1.605004561e-05 4.397945922e-05 0.003199507458)
(-0.0003979328107 -0.0006193374521 0.002634879468)
(6.382298992e-05 -3.301236169e-05 0.003641695213)
(7.503843899e-05 -0.0003897485405 0.00387885809)
(-0.0006611578034 -0.0001053070039 0.003150351349)
(0.0004685047546 -0.0002792683876 0.003189930984)
(0.000293085674 4.081741281e-05 0.003220921235)
(-0.0001879783763 -6.168264542e-05 0.00282870668)
(-0.0002361661267 0.0004472989896 0.003056383485)
(0.0002434459656 -0.0003984548296 0.00324508791)
(0.0003053454794 0.0002946840592 0.003331413875)
(-0.0001019676 4.38155522e-05 0.003277175987)
(1.132663463e-06 -2.981487575e-05 0.002949389636)
(-0.000381435603 0.0003680414497 0.002655588434)
(-0.0001516423233 -6.355295831e-05 0.003180103624)
(0.0002949013605 -0.0001731789614 0.0036294707)
(4.484254506e-05 -3.8882127e-05 0.003633980687)
(8.174799008e-05 -7.933735379e-05 0.002963306175)
(0.0002655042308 -0.000526653838 0.0033208593)
(0.0002271793672 0.0006976664262 0.002998363741)
(1.03554369e-05 4.965071715e-05 0.002684194636)
(-0.0006422431446 0.0001637067851 0.00308213699)
(-4.213130546e-05 -8.913146199e-05 0.002858765029)
(-0.0002969283065 0.0006069200983 0.003449691513)
(0.0002761098331 -4.905640788e-05 0.003257934575)
(-4.466126846e-05 -4.567704703e-05 0.003154102672)
(-0.0003917277789 -0.0001501935258 0.002645018055)
(9.952789875e-05 -0.0002438518487 0.002645399021)
(0.000128558506 0.0001448464784 0.003004946168)
(5.889441088e-05 -0.0002334046739 0.002918475316)
(0.000111215987 0.0004665871891 0.003181583347)
(0.0001250857834 0.0002980566413 0.002864227836)
(-4.215760624e-05 -9.288119498e-05 0.003189788455)
(0.0004832550743 0.0002912209768 0.003061739863)
(-7.245289492e-05 -6.74739576e-05 0.003039643223)
(0.0002345830699 -9.842153704e-05 0.002967518951)
(-7.627988292e-05 0.0002250484451 0.003088641088)
(0.0001092891564 -1.070225779e-06 0.002874189519)
(-0.000382892073 7.350529456e-05 0.002865117697)
(-0.0004376288386 -0.0001082488425 0.002877671736)
(0.0002481255221 -0.0003095687009 0.003005807927)
(-0.0001881983455 -0.0003115641047 0.003269446278)
(8.447900349e-05 9.17464135e-05 0.002974544992)
(-0.0003355216597 -0.0002351332902 0.002905287783)
(-0.000217317759 -3.850663626e-05 0.002977458957)
(0.0002085599188 0.0001930201693 0.003029594222)
(0.0001132438792 7.844095514e-05 0.003130253583)
(0.0002762474297 -1.757787921e-05 0.003649249177)
(-0.0001928908452 0.0003623915624 0.003044734641)
(-6.100887242e-05 -0.0001607580053 0.003138098469)
(-0.0003459530574 4.682787307e-05 0.003569768627)
(0.0001530229208 -3.153044317e-05 0.002908649342)
(-1.116875025e-05 -0.0001378384852 0.003157665991)
(-7.445878088e-05 0.0004729157039 -0.02808639526)
(0.0003752789285 0.0002672134784 -0.0101624741)
(0.0001734857536 -9.943168399e-05 -0.03082584588)
(0.0002809278397 0.000411539367 -0.02220626771)
(-0.0001826627668 0.0002930162499 0.003447277645)
(0.0001323654797 2.343348846e-05 -0.02124255109)
(-0.0001263682852 0.0003808067605 -0.016028366)
(0.000172292961 -0.0008217671489 -0.03736532019)
(0.0002425301731 -0.0005560586023 0.004483085983)
(-7.954787715e-05 -0.0001215677898 0.005251546525)
(5.74164544e-06 0.0001759966724 0.002770514427)
(0.0005374451568 -0.0004430545677 0.003957489239)
(0.0004022695232 8.576086735e-05 -0.07169203676)
(-0.0008483172429 0.0001698749854 -0.0335855882)
(-0.0005868348747 0.0002113951508 0.002326307135)
(0.000286800954 -7.587678747e-06 0.005194419654)
(0.0007379645096 -0.0005616713058 0.002468130966)
(2.538908121e-05 -0.0001358551398 0.003289173241)
(-6.716457174e-05 -0.0001326075554 0.004567826935)
(0.0001710035844 -0.0007656267054 0.003712821287)
(0.0001070102931 -0.0001562444817 0.003272175446)
(0.0004019392306 0.0001087755142 0.002446961211)
(-0.0002999102808 0.0001017470392 0.004212833232)
(-0.0002376833697 0.0002307773056 0.004289079323)
(-0.0008469609721 0.0006949995325 0.003767483068)
(0.0001202768298 8.841187491e-05 0.004068244562)
(0.0003811879383 0.0004180886663 0.001971972501)
(0.0001945172452 -3.734214656e-05 0.002976693713)
(-9.242891724e-05 -7.464868039e-05 0.002905920755)
(0.0003298652184 0.0002701888497 0.003158552963)
(7.81882011e-05 -9.295035269e-06 0.002801493071)
(-0.0008646614959 -0.0002601842826 0.002807040378)
(0.00018703754 -0.0003906242377 0.003324720902)
(0.0003333375171 -0.0001929682194 0.002868699643)
(0.0001412318434 0.0001468882957 0.003833935222)
(-0.0003268447936 -0.0004780770058 0.00322744566)
(0.0001764754411 -0.0001911851472 0.003109790682)
(-0.000179795271 -0.0002301582831 0.0030216846)
(0.0003633362782 -0.0005036248005 0.00264899305)
(-4.585982263e-05 -0.0001851099137 0.003882336309)
(0.0001803584829 0.0005022981098 0.003254793243)
(0.0004394091954 -0.0004628637477 0.003881740938)
(-3.919513989e-05 0.0002211343518 0.003693336827)
(-0.0003303817822 -0.0003146489272 0.002646518715)
(0.0004183471701 0.0004766738832 0.003224045791)
(-0.0004753438624 -3.487670171e-05 0.003238383233)
(-0.0003078428598 -0.000199013591 0.003380561574)
(0.0005764576352 0.0001662409078 0.002538555097)
(-3.989699275e-05 5.493863512e-05 0.004689760244)
(0.0002078586624 0.0003579801501 0.002627101188)
(0.0005958058079 0.0006936080388 0.002698086381)
(-0.0001800386019 0.0003191060015 0.00340840881)
(0.0003305217502 -0.000399848646 0.003021236501)
(0.000108280346 -0.0003010649247 0.003063733119)
(0.0004460500214 -0.0004429954923 0.003126472327)
(-0.0001649742643 -0.0002415178117 -0.008026955374)
(0.0001167841051 9.851658445e-05 0.003263689335)
(-0.0001694300283 0.0004995939227 -0.07566207043)
(0.0007038367829 0.0005126599534 -0.03384749622)
(-0.0005391897544 0.0001671371314 -0.01756910535)
(-0.0002976237005 4.448300642e-05 -0.06242595293)
(-0.0003420807849 0.0003634486343 -0.01977050537)
(0.0009217155551 0.0005722698275 -0.01595858071)
(9.57289987e-05 -0.0003514317625 0.00349020669)
(0.000735845539 -0.0003565853261 -0.01331704014)
(-0.000355278496 -9.734771545e-05 -0.04803299502)
(-0.0006950420166 0.0002219235989 -0.05587378632)
(0.0004923994908 2.481661696e-05 -0.03087699522)
(-0.0002691444142 -0.0002077033886 0.007728373117)
(-0.0004889515888 -0.0007106378073 -0.02822328528)
(4.342027826e-05 0.0005962302268 0.004631113453)
(-0.0002051801704 0.0002982874143 0.007908941945)
(-0.0005623096245 -0.0005885186957 0.003558639368)
(-0.0008615199501 -0.001166288072 0.003653224538)
(0.0001804351889 0.0001073077192 0.003068245957)
(4.589613914e-05 3.664302365e-05 0.003246391393)
(0.000154015538 -0.0002201389639 0.003212505691)
(0.0002715782981 -0.0003734450993 0.004671781796)
(0.000361546831 -6.415580643e-05 0.002625473079)
(-5.349481551e-05 0.0006277299218 0.003587746918)
(-4.599949807e-06 0.0002419867595 0.00331311948)
(8.458321071e-05 -0.000328241585 0.00397366717)
(0.0002392791982 -4.459256022e-05 0.002942962609)
(4.755392167e-05 7.23641248e-05 0.003787622633)
(0.0006929062366 -0.0001030948784 0.002530689627)
(-0.0003397098612 0.000486058691 0.002453685197)
(-0.0004839600079 0.0002146459094 0.002692747348)
(0.000526370818 -7.630114998e-05 0.003213598484)
(-0.0001310974858 -0.0001076918263 0.004042229212)
(-0.0001112763418 9.287773154e-05 0.003158546637)
(4.225292497e-05 0.0002552505772 0.003150850266)
(-0.0002793637948 0.0001750578374 0.00364287725)
(4.736668913e-05 -3.542118819e-05 0.003281100989)
(4.14345863e-05 0.0005202596872 0.003457801764)
(-0.0004662263688 -4.74779479e-05 0.002910676209)
(9.914657026e-05 -4.759783377e-05 0.003034290275)
(-0.0004901805758 0.0001853009706 0.003179467618)
(-0.0001137108832 0.0002463566459 0.003553767817)
(0.0008422050107 -0.0005922158162 0.00427529797)
(-9.04351304e-05 -5.568328542e-05 0.002784026636)
(-5.419508269e-05 -0.0001088630353 0.003070708921)
(-0.0002096711872 0.001043030042 0.003415256711)
(-0.0005791673934 0.000419025381 0.002960821385)
(-0.001030928577 0.0006822010822 0.002612055982)
(-0.0002755783478 -0.0001723472649 0.002750835387)
(8.78793079e-05 -6.351746004e-05 0.003034093155)
(3.587227382e-05 -0.000252696527 0.002980987849)
(0.0007143655283 -0.000195336502 0.002545390624)
(0.0002375194242 -7.717185741e-05 0.002984739239)
(-0.0001037991016 0.0001098289913 0.002671403983)
(-0.0001061267765 -0.0003119659305 0.003613945885)
(0.000480073678 0.0002484160866 0.003140145353)
(0.0002119607855 0.0002859880945 -0.0210252866)
(0.001108573766 0.0001043933016 -0.04001398504)
(-0.000629476901 6.526936531e-05 -0.03087705873)
(-0.0001397556679 -0.0007094755194 0.00570614585)
(6.839337156e-05 -0.0001124861578 -0.1056338592)
(-3.589893023e-05 0.0001811863706 -0.001639423227)
(-0.0005405119313 -0.0004308306872 -0.01967927603)
(-9.743638484e-05 0.001116601684 -0.06507503419)
(0.0005783648401 -0.0007057126369 0.004340043636)
(-0.0004931321818 0.000259973599 -0.01779509363)
(-0.000295684962 7.822719256e-05 -0.02028819289)
(0.0006531393127 0.0001257146849 0.005552023744)
(-0.0005903495331 -0.0004895874394 -0.07909571791)
(-4.070233672e-05 0.0003277694281 0.0003928410356)
(0.0004205998491 0.000117414858 -0.03484922636)
(0.0005727992535 -2.602096703e-05 -0.03961638394)
(-0.0002452822921 -4.566615907e-05 -0.004349854495)
(9.679245263e-05 0.0002867434938 -0.01774034475)
(0.0001550399123 2.45739716e-05 -0.003580707659)
(-9.391626909e-05 0.0001940382987 -0.03126468984)
(-8.630861551e-05 0.0003023473895 -0.01537531791)
(-9.011243147e-05 -0.0005025120994 0.003080740754)
(0.001035979472 0.0001650314471 0.002959461195)
(6.186779495e-05 0.0001377519956 0.003632234378)
(-3.708615755e-05 -0.0001628777109 0.003297678223)
(-4.142679863e-05 -0.0003895722403 0.003672769229)
(0.0001679027028 -0.0002542175894 0.003391914048)
(1.368890261e-05 0.0004997697014 0.003576419462)
(0.001883860598 0.0005217633037 0.003935156858)
(-0.0007899803637 0.0001953862596 0.003628793319)
(7.997225667e-05 0.0003514372422 0.003166578047)
(-0.0003036899961 0.0003037476443 0.003700123555)
(-0.0004682555999 0.0002386300095 0.003361758857)
(-7.430777742e-05 -0.000575159052 0.003517689874)
(-0.0003384125416 0.0003467541583 0.004591683643)
(4.294851108e-05 0.0003069943209 0.002986515483)
(-0.0002883751576 0.0004852160761 0.0036284078)
(0.0004116314408 -0.0005123584054 0.003100576234)
(0.001007480182 -0.00066877168 0.002588880797)
(-0.0001429964342 -0.0001712693755 0.002855188834)
(8.80302752e-05 0.0001521607024 0.003592079298)
(6.850880245e-05 -7.298911385e-06 0.002926067783)
(8.863771788e-05 -1.276255164e-05 0.002726975655)
(-0.0003484988048 0.0002743537044 0.002842049276)
(-0.0001810583697 -0.0001338355454 0.002818691851)
(0.0001374551316 -0.0005824566808 0.004592435547)
(0.0006303411645 4.350928249e-05 0.003198644371)
(0.0001116747997 -0.000218912946 0.002772246656)
(0.0005007560021 1.484327679e-06 0.002410825021)
(-0.001259216025 0.001054646086 0.004500609554)
(-6.681837367e-05 0.0003582249481 0.003167433537)
(0.0001742348248 -6.427528866e-05 0.003329438585)
(-0.0002864736311 -0.0002157546515 0.003586113549)
(-0.000140978869 -0.0001238106764 0.002541535237)
(0.0003517467782 -0.0004758382025 0.002606025717)
(5.025717557e-05 0.0004536805221 0.002866554019)
(-0.0002572291414 -0.0005760996321 0.002915952452)
(-0.0003157060242 -8.783582496e-05 0.0027035495)
(0.0005153591266 0.0008467763756 0.003629153863)
(0.0003202636067 0.0005936090322 0.00317548849)
(0.000497795405 -0.0001129079596 0.002993455585)
(6.960562713e-05 -0.0002638300579 0.002846340678)
(-4.126051027e-05 0.0001873448283 0.003322791491)
(-0.0001263790938 -0.0002694460626 0.002723927029)
(-8.419669865e-06 0.0002437524173 0.003151898925)
(-0.0002105791005 -0.0002440219965 0.002909919419)
(5.291664824e-05 1.582268391e-06 0.002760591166)
(-0.0003940854844 -6.14177441e-05 0.003608542218)
(-0.0002033732095 -0.0005388249595 0.002688918056)
(4.278252401e-05 2.10702823e-05 0.003269062859)
(0.0002670681462 2.786040689e-05 0.002810486407)
(6.421166041e-05 0.0002532131099 0.003358997466)
(-4.467436242e-05 -5.594721362e-05 0.002116514539)
(0.0003940433035 -0.0002410797432 0.004510379844)
(0.0002199575331 0.0004037794784 0.002779373236)
(0.0001372751831 0.0004177035884 0.003155540836)
(-0.0005323066409 -0.0006952583081 0.003146964532)
(7.227798784e-05 3.353909525e-05 0.002879177612)
(0.0002532997058 -0.0001110917588 -0.01457878058)
(9.115641791e-05 0.0003335988174 -0.05396404842)
(-0.0004982621432 -0.0004208935302 0.005181091583)
(-0.0001885000657 0.000317559384 0.003666104992)
(0.0001242578592 -7.430660751e-05 0.002598000259)
(-0.0004216991332 -0.0001066144264 -0.04259792098)
(0.0001464190564 0.0004793542623 -0.02647944067)
(-0.0003361109901 -0.0004806110591 -0.02327804085)
(-0.000699409931 -0.0004209248187 0.004167732331)
(-0.0002266678262 0.0001084781553 0.003798526883)
(-1.562166353e-05 3.07543781e-05 -0.01674186389)
(0.0006188615303 0.0006896423742 -0.01892203301)
(0.0002077985198 0.0002759951306 -0.02276860208)
(-0.0002340783517 -0.0001229896661 0.003465463632)
(9.690432089e-05 0.0001409706288 -0.03644938997)
(-0.0002652482217 0.0001711047133 0.003590986947)
(-8.517182018e-05 0.0007462827116 -0.0377705075)
(-9.872262911e-05 -0.0006045840986 0.003401944512)
(0.0002898942805 0.0001560611427 0.003615107298)
(0.0009362385497 0.0002276009905 0.003572177228)
(1.350262925e-05 0.0005713233341 0.003544926501)
(-6.292582585e-05 -0.0001233446154 0.003450308218)
(0.0001649532748 -0.0005086731425 0.00337904847)
(0.0001972468618 3.103570119e-05 0.003079528885)
(0.0004418724369 -3.684859371e-05 0.002401907249)
(-0.0004454524748 -0.0002371815558 0.002647752528)
(-8.56971768e-06 0.0002276771911 0.003429548736)
(0.0001912595427 -0.0001910468323 0.003700388109)
(-0.000275291753 -0.0003958510207 0.00319390476)
(0.0001302806297 -0.0002665572943 0.002885165447)
(-7.621753176e-05 -0.0001233636724 0.002940158838)
(-0.00018768233 -5.029853332e-05 0.003205244909)
(-0.0005217921649 0.000117562637 0.003262253997)
(-8.974165361e-05 2.919369733e-05 0.004122915425)
(0.0008710873899 -0.0002558650069 0.00239469292)
(-0.0005473949081 -0.0001932850146 0.003171065246)
(-1.806494459e-06 -0.0002755016392 0.004068422643)
(-0.0001675990853 -0.000162550173 0.002551673667)
(0.0001019505003 -0.0003709990412 0.003466953971)
(4.468560652e-06 -3.429875964e-05 0.003087475085)
(-0.000114469688 -2.729033546e-05 0.003424298418)
(8.092079439e-05 0.0002435376164 0.003556381374)
(0.0001577670029 -1.563841889e-05 0.002988832646)
(6.433441186e-05 0.0002087902374 0.003146000034)
(-5.886081091e-05 0.0003039185587 0.003433762756)
(0.0003622047074 0.0004213936966 0.002898904388)
(6.34732572e-05 -2.0429216e-05 0.002869146108)
(0.0002068109179 0.0002834078307 0.003584583753)
(-2.337111042e-05 8.245797826e-05 0.002809491196)
(-0.0004178781466 0.0002450591635 0.002980311789)
(-0.0002658068059 -6.023889244e-05 0.003320197471)
(1.283669033e-05 0.0001107603385 0.003407106895)
(-0.0002495284663 -8.284899087e-05 0.003303437208)
(0.000124163123 -4.102095015e-05 0.003198333703)
(-9.394056212e-06 -0.0001429226988 0.002935803839)
(0.0002480086328 -0.0002355715401 0.002955497074)
(0.0002042611769 8.3107046e-05 0.002918505104)
(-0.0003936551496 -0.0002856709263 0.003777476447)
(3.84303724e-05 -0.0002565254447 0.003405567664)
(0.0004198188054 -0.0005421520947 -0.05472023748)
(0.001864347545 0.0008640835276 0.008117076053)
(0.0005698591495 0.0005196895269 -0.06093624868)
(-0.000897990064 -0.0008498547888 0.002914504887)
(0.0004110090983 0.0004062956548 -0.07781840011)
(0.000112864734 0.0004747132257 0.00637114271)
(-0.0005696009036 0.0002535102539 -0.02339887434)
(-0.001385700066 -0.000615523485 0.004574648704)
(-0.0007632985302 0.0005308253923 -0.04074581159)
(0.0007688499106 9.397620623e-06 -0.01030126963)
(-0.000928665437 -0.0003735842819 0.003742921179)
(3.245329471e-05 -0.0002933731602 -0.01993424951)
(1.706336196e-05 -3.351809011e-06 -5.002721877e-06)
(-2.166330206e-05 -6.522462448e-05 -0.005071642371)
(0.0004219733034 0.0005005789809 -0.01423471243)
(4.697132474e-06 0.0002967225352 0.002621483238)
(9.035019627e-05 0.0003121464452 0.003294853379)
(-0.001080925355 -0.00115274785 0.004694797263)
(-0.0001399073198 -0.0001591207202 0.003316131563)
(6.090527946e-05 2.724228817e-05 0.004342854489)
(0.0002643774026 -0.001045282415 0.004796315311)
(0.0002456715089 -0.0006045974218 0.004257278891)
(0.0002469405872 0.0003812048562 0.003095132625)
(-0.0001610144564 0.0004541090022 0.002431301694)
(0.0003418485418 7.781196323e-05 0.003023001179)
(0.0008459166746 0.001279526796 0.004131095213)
(6.879463389e-05 0.0006718809179 0.003384258199)
(-0.000176674488 -0.0001133177575 0.003309980683)
(-5.521717138e-05 -0.0001978407213 0.002996925098)
(0.0001459029191 0.0001566444322 0.002870671543)
(-2.443725105e-05 0.0003813729714 0.002899900488)
(0.0001889079965 -1.122203418e-05 0.002992117121)
(1.906704055e-06 5.838352598e-05 0.003550635642)
(-0.0002062794447 0.0007843182312 0.003398346602)
(8.395174075e-05 0.0004243592646 0.003142372094)
(0.001165303428 0.0007062315509 0.0005569990721)
(-0.0009371064564 -6.28874216e-05 0.002954926911)
(0.0009300409415 -0.0002561699248 0.002901832602)
(-0.0008798213561 -0.0007618497401 0.003080239981)
(0.000585651113 -0.000785250614 0.002123908955)
(-0.003093239418 -0.001383738548 0.006733484435)
(0.0001890363199 0.0001271766326 0.003612662528)
(0.0001153743276 0.0002142275082 0.004046720005)
(-0.000117935821 0.000617336127 0.002885928394)
(-0.0001438681708 -0.0002839879425 0.002669892982)
(0.00014101789 -0.0001438308657 0.002873997539)
(1.594249245e-05 -0.0006112369811 0.002759351695)
(-0.00029210509 0.0002383718205 0.004500597593)
(-6.969309618e-05 -2.842398095e-06 0.003327077128)
(0.0002449850233 9.845022874e-05 0.003456063252)
(0.0001023099084 -0.0002900306057 0.003138057707)
(-0.0008851238824 0.0007814697135 0.004211162826)
(-0.0004084131246 0.0001881102095 0.003193218801)
(0.0006556349815 -3.554690351e-05 0.002090288029)
(-0.0008302858866 -0.0005262313296 0.00531937635)
(2.317006389e-05 0.0003852311954 0.003534647917)
(-0.0001818271274 -0.0001616752285 0.00276985864)
(-0.0001418970348 -0.0002872269694 0.003204328039)
(-0.0002579760407 0.0001323253977 -0.02635230009)
(-5.807183188e-05 -1.727456028e-05 -0.001468615232)
(-6.999939128e-05 -0.0001252677724 -0.005548051417)
(0.0001313464799 -0.0002401476852 -0.01813636085)
(-3.170397253e-05 5.412827952e-05 -0.03050423274)
(-6.896360602e-06 0.0003203444484 -0.01961860234)
(0.0002099143107 -3.555160717e-05 0.003256959399)
(0.0005636017641 0.0003312009506 -0.02980273769)
(0.0001478597962 -0.0001064416935 -0.06461705269)
(-3.155501741e-05 0.0001022486501 0.005613885454)
(-0.0003164621392 0.0003048707501 -0.0329362011)
(-7.998791e-05 0.0001841529095 -0.01805952516)
(0.0005543717805 -0.0004995978103 -0.01225837015)
(-0.0001216157139 -0.0002189352071 -0.03797854431)
(0.0003837233325 -0.0003062037048 0.003780720369)
(0.0005608786781 -0.0008150563829 -0.04482552782)
(-4.156912954e-05 -0.0006177441484 -0.05198850621)
(-0.0004404630734 0.0003347685532 0.004164960023)
(-0.0004071658151 0.000314336593 0.003371974205)
(0.0007454745015 4.954584856e-05 0.003434976175)
(-0.0006118281572 1.017641324e-05 -0.009455523172)
(0.0002735964085 -8.662461642e-05 0.007629593227)
(-0.0003309929806 -7.660686702e-05 -0.01617215423)
(-0.0006506929184 0.000795697165 0.003195495359)
(0.0002588585818 -0.0002176082297 0.003456451281)
(0.0003071152555 -0.0004907804156 0.003449204344)
(3.177154477e-05 -0.000769043089 0.00399863673)
(0.0002693815825 0.0002449047631 0.00329953689)
(4.419095255e-05 -5.640170291e-05 0.002931108106)
(-3.616711868e-06 -0.00043335965 0.003189411288)
(-0.0005890216894 0.0005651111052 0.002903477477)
(-0.0005173779164 0.0008751681733 0.003994584143)
(-0.0002808093305 -0.0007417969204 0.002980152629)
(-0.000194209606 0.0001461815447 0.004133028574)
(4.553349446e-05 -0.0006698334766 0.004103512467)
(-0.0001273852217 -0.0001490801757 0.003132231532)
(-8.587804295e-05 0.00021959438 0.003381303519)
(-4.403594435e-05 -0.0002467454057 0.003227962906)
(-0.0001658288821 0.0001260150035 0.003368506366)
(0.0001920361232 0.0001727867238 0.004343297852)
(0.0002014426825 0.001823822178 0.00372701603)
(-3.121973827e-05 6.575173971e-05 0.003666292982)
(0.0003584407509 0.0004342110391 0.003013976924)
(-0.0007972054185 -0.000459813472 0.003397595187)
(0.0001679476375 0.0001883696039 0.003192078678)
(0.0001766355036 0.0002625750893 0.002757453099)
(-0.0002640622503 -0.0001668963862 0.002807371066)
(-4.694746548e-05 -0.0001722667954 0.003020005312)
(0.0004426843662 0.0004319268127 0.003603257573)
(0.0003551535551 0.0001015260627 0.003910654715)
(-0.0001744491529 -0.000347020527 0.003653169292)
(0.0001094329818 0.0001110930957 0.002954119408)
(-4.139072261e-06 -0.0002559091594 0.002695038456)
(-0.0002702816533 -0.0001485524471 0.002588660926)
(0.0003182700135 0.0003123494829 0.00294042009)
(8.39122205e-05 -0.0002475073775 0.00293171818)
(0.0001145143192 0.0001341677963 0.003150355322)
(-0.0002100123785 -5.775068911e-05 0.002429843195)
(0.0001250570911 -0.0003095374382 0.003429814173)
(-0.000219502216 0.0001720013487 0.003126293714)
(-8.997707669e-06 -0.00042233997 0.003193265803)
(0.0004196281006 -2.457009914e-05 0.002963240226)
(0.0002067487923 -0.0001727870401 0.003372928431)
(-0.0002130418559 0.000166410439 0.003453807647)
(8.841230925e-05 0.0002514108962 0.002949037901)
(9.720194436e-05 -0.0004373506654 0.003436983432)
(-0.0004855444148 -0.0001600886904 0.002875389475)
(5.947221154e-05 0.0002345551826 0.003151725227)
(0.0001374119095 0.0001469487827 0.003269609004)
(-5.878944284e-05 -0.0004687322148 0.003447536014)
(0.0001175841251 7.028340577e-05 0.003124770073)
(-0.0001029228087 0.0001489035908 0.003048145051)
(0.0002077899941 0.0003868247838 0.002858180515)
(0.0002378290701 0.0007912457046 0.002976359425)
(-5.816178503e-05 -3.323959767e-05 0.002861281174)
(-4.455691186e-06 1.546957637e-06 0.003077461001)
(0.0002120670824 -0.0001884385306 0.003503202243)
(4.373019883e-05 0.0001623678504 0.003040942486)
(-0.0003181045605 3.548622038e-05 0.003394142836)
(8.581729615e-05 2.476800525e-05 0.003059977015)
(-0.0002470362776 1.095167495e-05 0.003609259892)
(0.0001222103931 -0.0001352123686 0.002947178125)
(0.0002377383156 3.238977217e-05 -0.01677631624)
(0.0001288835795 0.0002648749444 0.005844852347)
(-0.000975925975 0.0002055793837 0.0008253048726)
(0.0002561475854 -0.000157757545 -0.007130252882)
(-0.0005333142646 -0.0005104083134 -0.02047016494)
(0.0004613562016 -5.57650737e-05 0.003897365431)
(-0.0001323966014 0.000299458307 -0.07541553416)
(-0.001028010997 -0.0006420486636 -0.03927662044)
(0.0003091691889 -0.0004855251526 -0.03591242644)
(7.500714951e-05 0.0001967113371 0.005446460323)
(-6.038292435e-05 0.0004724292981 -0.02098834902)
(-1.639680339e-05 0.000324504759 -0.03750970824)
(-0.0003876378879 -0.00153619878 0.004189966958)
(4.632735207e-05 5.324326776e-05 -5.752009241e-05)
(-0.0003356758645 -0.000335703946 -0.01526125403)
(0.001241174276 -0.0002363280458 0.003113753417)
(0.0001609920449 0.0003790763449 0.002963532546)
(1.939801694e-05 -0.0002647012643 0.003470635475)
(-0.001508649127 -0.0001240159727 0.003386715849)
(0.001956975533 0.0008620297174 0.004158800281)
(0.000390897744 0.0001932091599 0.003877374874)
(-0.0003191386686 4.980462354e-05 0.00473581913)
(-0.0007273849927 6.548435755e-05 0.00297093289)
(0.0001377030463 0.0003558298657 0.002959790986)
(-0.0001781962018 -0.0002975443172 0.003352724745)
(-0.0002584466739 -8.158945395e-05 0.003267018611)
(-8.246505988e-05 -3.407491916e-05 0.002928844629)
(-0.000196445349 0.0008476192857 0.003405761845)
(0.0006746111135 0.0001875211082 0.002801660821)
(-0.0001397281449 0.0001245240271 0.003161864417)
(-0.0002533850217 -0.000415507848 0.002975655587)
(-0.0002375838258 -0.0001637172361 0.002429800051)
(-0.0003206182082 0.0001214974303 0.003123080291)
(-9.560465731e-05 -0.0003228633866 0.002639692668)
(-0.0001457269923 0.0002207932697 0.00317734133)
(0.000315529448 -0.0002707865216 0.003526429626)
(-6.607752167e-05 0.00042582354 0.002699609457)
(0.0008416358411 1.023079323e-05 0.002820134656)
(-0.0004250130367 -2.592701648e-05 0.002457889537)
(0.0001133686909 -0.0001274424409 0.00289452759)
(-1.896076658e-05 -0.0002002093973 0.003314227101)
(0.0001480837841 2.377537102e-05 0.003202661496)
(0.0006952966975 -0.0004796386885 0.003067962311)
(-2.361348253e-05 -0.0005754132653 0.002754625791)
(0.0004005818236 0.000382862185 0.003160903125)
(0.000362490891 0.0002721909178 0.00348557129)
(0.0001254331268 5.279090018e-05 0.003245894804)
(0.000609254683 -0.0005285687253 0.003810002823)
(-4.612714471e-05 1.642426644e-05 0.003360788677)
(0.0001952224551 -8.069533104e-05 0.003048919293)
(0.0001480924954 -0.0001727606038 0.003251640809)
(7.473149154e-05 8.084286943e-06 0.003655904552)
(0.0001664074694 0.0006190136279 -0.007636995743)
(1.690453802e-05 0.0001321602277 -0.03064444958)
(-0.000223994131 -4.429392332e-05 0.003010994479)
(-2.985397464e-05 -2.172328577e-05 -0.008380470052)
(0.0004481046341 -0.0001187609269 -0.02448896334)
(-5.14009371e-05 -0.0007428315029 -0.04150616715)
(2.629281743e-05 8.498156645e-06 -0.0001087600539)
(0.0003138339694 0.0001630286021 -0.02252843363)
(-7.958990479e-05 0.0003911473346 -0.05999062079)
(0.0001390655022 0.0001859993929 -0.02386051612)
(5.743169743e-05 -0.0002296194895 0.003281982756)
(-0.0004767303549 0.0002286956594 -0.06627292188)
(0.0001103520322 0.0005297832753 -0.04705176691)
(-0.0001895301662 -0.000100831841 0.003844333583)
(5.330684213e-05 -6.308095213e-06 -0.01014756088)
(0.000318260772 0.0002387700391 0.003133639852)
(0.0002212297864 -0.0003874218264 0.002991439494)
(-1.890494108e-05 -0.0003689920737 0.00359552762)
(0.0001261249335 -8.431198389e-05 0.003530779001)
(0.0001803302098 0.000114238416 0.003155077082)
(-0.0003450017954 8.135558337e-05 0.002800499969)
(-0.0001070443811 -0.0003356957116 0.003249273567)
(-8.11748488e-05 7.424916576e-05 0.003228602838)
(0.0001308688472 0.000102816518 0.003596570276)
(0.0002124106149 -0.0008154906166 0.004075712846)
(-0.0002355100124 -0.0007299480897 0.003325998826)
(-6.257609184e-05 -8.242498626e-05 0.004102319051)
(-9.314928364e-05 7.335486699e-05 0.003083425184)
(-0.0001776544178 -3.56507847e-05 0.003089443093)
(-0.000281249705 4.313791756e-05 0.002761546913)
(1.439448096e-05 -7.427515471e-05 0.002915674803)
(0.0004039298201 -0.0001456808968 0.003106598091)
(-0.0002215783359 -0.00088010527 0.003880531457)
(0.0003223402572 1.204710042e-05 0.003034715369)
(-0.0001716705483 0.000255780488 0.002736067834)
(3.284689386e-06 -6.414053508e-05 0.002771939437)
(-6.486550265e-06 -8.418362403e-05 0.003565578161)
(5.330234269e-05 -0.0001298935461 0.003579134698)
(-0.0001823471326 0.0001073159307 0.003344667065)
(0.0002050968981 0.0003091923474 0.003478286295)
(0.0002181340167 -0.0001591428006 0.003211229276)
(0.0002747612981 0.000450750455 0.003530477758)
(4.115810252e-05 0.000167965519 0.003350223248)
(-6.585108731e-05 0.0002958306301 0.002995751418)
(-0.0003167521604 -0.0001116270864 0.003476773835)
(0.0002067514692 -0.0001503984424 0.002928194862)
(-0.0003054583184 -7.888951451e-05 0.003041883449)
(-0.0002248286441 -6.617661933e-05 0.003383205771)
(-2.704394236e-05 0.0001566853171 0.003501960281)
(9.782862608e-05 -3.788053304e-05 0.003636149854)
(0.0004035002731 -0.0001087814893 0.003030349623)
(-5.066744977e-05 8.667069298e-05 0.003164799375)
(-0.0002935955766 -0.0002366777158 0.003125414159)
(-0.0001420457776 -0.0001164329248 0.003424806181)
(0.000107955953 -0.0003614338611 0.003403422358)
(-0.0003607019553 -4.356323765e-05 0.003142549585)
(-9.251263927e-05 0.0003881402177 0.0034964735)
(-0.0005261852918 0.0005097434161 -0.0258307625)
(-0.0007078287289 0.0006770552587 0.002706821419)
(-0.0002529166664 -0.0001277334121 -0.007490930435)
(0.0002675989762 -0.0007342243939 -0.02733653103)
(-0.0004156839434 0.0001837039079 -0.06928972873)
(-0.0006962191278 -0.0001605851287 -0.05580485339)
(-0.0005121854931 0.0002187604126 -0.007654802297)
(-4.25568007e-05 0.000259860046 0.006772803811)
(0.0001274772393 1.338650946e-05 -0.005500001157)
(8.919730963e-05 -0.0006059056709 -0.02091552387)
(-0.0002706521359 0.001022634593 0.00265215388)