/*--------------------------------*- C++ -*----------------------------------*\
  =========                 |
  \\      /  F ield         | OpenFOAM: The Open Source CFD Toolbox
   \\    /   O peration     | Website:  https://openfoam.org
    \\  /    A nd           | Version:  7
     \\/     M anipulation  |
\*---------------------------------------------------------------------------*/
FoamFile
{
    version     2.0;
    format      ascii;
    class       scalarField;
    location    "2/lagrangian/coalCloud1";
    object      mp0;
}
// * * * * * * * * * * * * * * * * * * * * * * * * * * * * * * * * * * * * * //


2000
(
0.0003168917343
0.0003168880902
0.0003168865684
0.0003168873827
0.0003168875327
0.0003168878134
0.0003168872386
0.0003168901004
0.0003168888682
0.0003168903425
0.0003168891487
0.0003168906691
0.0003168868945
0.0003168896108
0.0003168868371
0.0003168862576
0.0003168797131
0.000316889086
0.0003168897132
0.0003168875151
0.0003168903449
0.0003168874119
0.0003168878942
0.0003168841045
0.0003168915156
0.0003168882924
0.0003168880048
0.0003168904322
0.0003168896083
0.000316888796
0.0003168886666
0.0003168885368
0.0003168880453
0.0003168861054
0.0003168889092
0.0003168905903
0.0003168898506
0.0003168869068
0.0003168895025
0.0003168898316
0.0003168908259
0.0003168909081
0.0003168885332
0.0003168884397
0.0003168898331
0.0003168855785
0.0003168861501
0.0003168880812
0.0003168908413
0.0003168919235
0.0003168904981
0.0003168889451
0.0003168859783
0.000316890701
0.0003168897559
0.000316889827
0.000316891532
0.0003168905431
0.0003168874398
0.0003168900273
0.0003168911739
0.0003168885651
0.0003168875306
0.0003168887771
0.0003168879608
0.0003168871603
0.0003168895922
0.0003168834115
0.0003168894103
0.000316886598
0.0003168894902
0.0003168878864
0.0003168874175
0.0003168881683
0.0003168896526
0.0003168914347
0.0003168902502
0.0003168873006
0.0003168862742
0.0003168861117
0.0003168839796
0.0003168889746
0.0003168889158
0.0003168832747
0.0003168848245
0.0003168874716
0.0003168814853
0.0003168885085
0.0003168905675
0.0003168838103
0.0003168889234
0.0003168881146
0.0003168830488
0.0003168883416
0.0003168893574
0.0003168873737
0.0003168884686
0.0003168882988
0.0003168881002
0.0003168883714
0.0003168833612
0.0003168899319
0.0003168884025
0.0003168890773
0.0003168894438
0.0003168882019
0.0003168882512
0.0003168859808
0.0003168879934
0.0003168876879
0.000316885031
0.0003168870846
0.0003168853242
0.0003168889676
0.000316887613
0.0003168904318
0.0003168909907
0.0003168866033
0.0003168880072
0.0003168874182
0.0003168893664
0.0003168870228
0.0003168895568
0.0003168876638
0.0003168879016
0.0003168881604
0.0003168878865
0.0003168890933
0.0003168881761
0.0003168813303
0.0003168858753
0.0003168900122
0.000316889841
0.0003168883682
0.0003168891081
0.0003168847123
0.0003168900482
0.0003168885804
0.0003168927042
0.0003168885638
0.0003168878209
0.0003168877753
0.0003168896359
0.0003168842959
0.0003168900112
0.0003168913136
0.000316887221
0.0003168876835
0.000316889169
0.0003168888824
0.000316886917
0.0003168869981
0.000316887559
0.000316886598
0.0003168853487
0.0003168912335
0.0003168873455
0.0003168903238
0.0003168885033
0.0003168907956
0.00031689074
0.0003168880262
0.0003168875017
0.0003168895912
0.0003168876812
0.0003168879156
0.0003168853446
0.0003168904035
0.0003168894529
0.0003168881574
0.0003168880982
0.0003168887489
0.0003168874193
0.0003168889181
0.0003168886553
0.0003168912217
0.0003168879459
0.0003168881777
0.0003168894009
0.0003168902472
0.0003168844617
0.000316889476
0.0003168889322
0.0003168861386
0.0003168830129
0.0003168854932
0.0003168886333
0.0003168866729
0.0003168880486
0.0003168863376
0.0003168902066
0.0003168885909
0.0003168847524
0.0003168895338
0.0003168853205
0.000316887342
0.0003168869951
0.0003168913663
0.0003168879907
0.0003168896856
0.0003168886094
0.0003168881424
0.0003168883058
0.0003168855488
0.0003168887595
0.0003168892977
0.0003168883056
0.0003168852782
0.0003168887505
0.0003168890854
0.000316889608
0.0003168876679
0.000316878743
0.0003168864492
0.0003168853302
0.000316888281
0.0003168889311
0.0003168892681
0.0003168905747
0.0003168861364
0.0003168893808
0.0003168879062
0.0003168925851
0.00031689228
0.0003168884122
0.0003168894783
0.0003168916014
0.0003168904494
0.0003168876976
0.0003168910192
0.0003168869112
0.000316890359
0.0003168885853
0.0003168868719
0.0003168877835
0.0003168915153
0.0003168904469
0.0003168871565
0.0003168887936
0.0003168902378
0.0003168911749
0.0003168897549
0.0003168913763
0.0003168905819
0.0003168911149
0.0003168896531
0.0003168913235
0.0003168903225
0.0003168906588
0.0003168898419
0.0003168916591
0.0003168828658
0.0003168885699
0.0003168913554
0.0003168907697
0.0003168907092
0.0003168857063
0.0003168906637
0.0003168910663
0.0003168910305
0.0003168912387
0.0003168905442
0.000316890039
0.0003168887047
0.0003168910336
0.0003168869886
0.000316890331
0.0003168905931
0.0003168828398
0.0003168915071
0.0003168888373
0.0003168878898
0.0003168895993
0.0003168867242
0.0003168888257
0.000316884238
0.0003168890175
0.0003168881956
0.0003168868777
0.0003168851582
0.0003168864089
0.0003168873211
0.0003168859184
0.0003168876649
0.0003168866554
0.0003168873281
0.0003168818171
0.0003168900322
0.0003168860907
0.0003168857987
0.0003168873426
0.0003168883595
0.0003168906297
0.0003168882136
0.0003168868026
0.000316886924
0.0003168872284
0.0003168881355
0.0003168867801
0.0003168849148
0.0003168866148
0.00031688205
0.0003168909361
0.0003168884897
0.0003168892028
0.000316887106
0.0003168902494
0.0003168887959
0.0003168853779
0.0003168885765
0.0003168858432
0.0003168866357
0.000316888717
0.0003168897445
0.0003168881897
0.0003168882794
0.0003168866716
0.0003168886143
0.0003168843821
0.0003168911957
0.000316887151
0.0003168864179
0.0003168882585
0.0003168895552
0.0003168867446
0.0003168886827
0.000316885085
0.0003168903242
0.0003168866718
0.0003168906982
0.0003168828546
0.0003168869124
0.0003168874198
0.000316889131
0.0003168891701
0.0003168900113
0.0003168839423
0.0003168901908
0.0003168897514
0.0003168891889
0.0003168897989
0.0003168886911
0.0003168868036
0.0003168750095
0.0003168825397
0.0003168839374
0.0003168875555
0.0003168875657
0.0003168881531
0.0003168869818
0.0003168861591
0.0003168894066
0.0003168882903
0.0003168882033
0.0003168892849
0.0003168870441
0.0003168884995
0.0003168882741
0.0003168870538
0.0003168928517
0.0003168868742
0.0003168876681
0.0003168856617
0.0003168913239
0.0003168911043
0.0003168858232
0.0003168858252
0.000316886896
0.0003168876888
0.0003168877568
0.0003168876596
0.0003168864404
0.0003168906818
0.0003168860133
0.0003168912949
0.0003168892433
0.000316890729
0.0003168858239
0.0003168821435
0.0003168854893
0.0003168868849
0.0003168887142
0.0003168881663
0.0003168875146
0.0003168900667
0.0003168883545
0.0003168877626
0.0003168820527
0.0003168855261
0.000316887814
0.0003168913051
0.0003168902835
0.0003168830884
0.000316889915
0.0003168901841
0.0003168862865
0.0003168905953
0.0003168870527
0.0003168877225
0.0003168872198
0.0003168880451
0.0003168886005
0.0003168901575
0.0003168890842
0.0003168848345
0.0003168861343
0.0003168892959
0.0003168904875
0.0003168897258
0.0003168876267
0.0003168874691
0.0003168834194
0.0003168903207
0.0003168890935
0.0003168904284
0.0003168895041
0.0003168904311
0.0003168880526
0.0003168848238
0.0003168873983
0.0003168908785
0.0003168897508
0.0003168917381
0.0003168886555
0.0003168905305
0.0003168882407
0.0003168901351
0.0003168918212
0.0003168854291
0.000316889054
0.0003168863011
0.0003168877721
0.0003168901896
0.0003168903
0.0003168911067
0.0003168880618
0.0003168905942
0.0003168851212
0.0003168864344
0.0003168880699
0.000316889555
0.0003168868137
0.000316888411
0.0003168888797
0.0003168856808
0.0003168899644
0.0003168905954
0.0003168877912
0.0003168888807
0.0003168874047
0.0003168877599
0.0003168868241
0.000316890517
0.0003168903622
0.0003168882042
0.0003168864339
0.000316889241
0.0003168860999
0.0003168898826
0.0003168854228
0.0003168888275
0.000316889401
0.0003168890612
0.000316885251
0.0003168895329
0.0003168873333
0.0003168886035
0.000316886868
0.0003168861968
0.0003168875302
0.0003168855593
0.0003168856991
0.0003168828374
0.000316890772
0.00031688926
0.0003168869524
0.0003168891774
0.000316889587
0.0003168878462
0.0003168877889
0.0003168888885
0.0003168866238
0.000316887984
0.0003168901417
0.0003168848796
0.0003168877462
0.000316884967
0.0003168895101
0.000316889857
0.0003168859544
0.0003168868562
0.0003168866421
0.0003168894718
0.0003168871789
0.0003168892022
0.0003168886069
0.0003168876745
0.0003168897975
0.0003168919804
0.0003168835028
0.0003168858091
0.0003168920497
0.0003168853593
0.0003168850198
0.0003168878958
0.0003168884887
0.0003168881552
0.0003168902495
0.0003168891002
0.0003168881826
0.0003168890552
0.000316888558
0.0003168866486
0.0003168878032
0.0003168874207
0.000316888868
0.0003168852898
0.0003168879501
0.0003168890735
0.0003168858468
0.00031688535
0.0003168841635
0.0003168840709
0.0003168895758
0.0003168890455
0.000316885747
0.0003168853132
0.0003168885819
0.0003168820511
0.0003168852743
0.0003168824025
0.0003168890044
0.000316887838
0.0003168871874
0.0003168874939
0.0003168865156
0.0003168896319
0.0003168869017
0.0003168895321
0.0003168899092
0.0003168887658
0.0003168888493
0.0003168907352
0.0003168878697
0.0003168896208
0.0003168887533
0.0003168875222
0.0003168899101
0.0003168869681
0.0003168894177
0.0003168875611
0.0003168889291
0.0003168877392
0.0003168864701
0.0003168890408
0.0003168880246
0.0003168905437
0.0003168921691
0.0003168900013
0.0003168879423
0.0003168922286
0.0003168885358
0.0003168887472
0.000316888523
0.0003168823048
0.0003168873339
0.0003168828574
0.0003168853223
0.0003168909604
0.0003168865124
0.0003168883339
0.0003168859729
0.0003168909464
0.0003168885407
0.0003168881689
0.0003168865811
0.0003168860157
0.0003168895894
0.0003168879897
0.0003167295837
0.0003168852781
0.0003168894388
0.0003168809953
0.0003168854886
0.0003168867127
0.0003168863284
0.0003168860237
0.0003168910113
0.0003168866859
0.0003168886617
0.0003168898466
0.0003168869683
0.0003168885627
0.0003168900481
0.0003168863501
0.0003168853178
0.0003168897228
0.0003168871871
0.0003168893395
0.0003168878266
0.0003168872213
0.0003168866773
0.0003168881545
0.0003168883779
0.0003168908566
0.0003168906485
0.0003168867586
0.0003168869287
0.0003168852613
0.0003168907153
0.0003168921834
0.0003168892029
0.0003168900673
0.0003168869061
0.0003168914309
0.0003168895992
0.0003168882651
0.0003168883816
0.0003168905961
0.0003168892761
0.0003168877264
0.0003168897689
0.0003168884081
0.0003168912342
0.0003168919608
0.0003168879063
0.0003168899422
0.0003168878037
0.0003168889162
0.0003168894322
0.0003168910386
0.0003168876295
0.0003168879776
0.0003168862768
0.0003168898173
0.0003168878162
0.0003168884694
0.0003168895118
0.0003168882173
0.0003168887583
0.0003168879319
0.0003168914099
0.0003168908265
0.0003168888227
0.0003168900136
0.0003168882352
0.0003168883719
0.0003168860055
0.0003168900572
0.0003168884123
0.0003168901969
0.0003168904424
0.0003168908378
0.0003168894586
0.0003168869981
0.0003168910627
0.000316889181
0.0003168872822
0.0003168907688
0.0003168846414
0.0003168879883
0.0003168857011
0.0003168913881
0.000316888854
0.0003168898014
0.0003168886108
0.0003168875486
0.0003168644402
0.0003168883902
0.0003168883006
0.0003168884067
0.000316886204
0.0003168902226
0.0003168894008
0.0003168860243
0.0003168886571
0.0003168869758
0.0003168901691
0.0003168864793
0.0003168869206
0.0003168830258
0.0003168875102
0.000316885003
0.0003168889214
0.0003168872868
0.0003168873059
0.0003168891785
0.000316891604
0.0003168888137
0.0003168859488
0.0003168899151
0.0003168865024
0.0003168885476
0.0003168879363
0.0003168910842
0.000316886753
0.0003168905929
0.0003168863622
0.0003168871715
0.0003168847594
0.0003168862845
0.0003168912047
0.0003168904971
0.0003168857189
0.0003168882726
0.0003168870693
0.000316887118
0.0003168873177
0.0003168814171
0.0003168899783
0.0003168866597
0.0003168871756
0.0003168897322
0.0003168867423
0.0003168865879
0.0003168897034
0.000316889719
0.0003168861921
0.0003168872755
0.0003168808603
0.0003168861208
0.0003168881305
0.0003168904136
0.0003168856045
0.0003168892081
0.0003168851316
0.0003168903604
0.0003168870199
0.0003168867817
0.0003168865803
0.0003168874101
0.0003168873321
0.0003168889875
0.000316887746
0.0003168850482
0.0003168858494
0.0003168894677
0.0003168853753
0.0003168850931
0.000316890128
0.000316889795
0.0003168880318
0.0003168899761
0.0003168899471
0.0003168902897
0.0003168879324
0.0003168893227
0.0003168869091
0.0003168900477
0.0003168886761
0.0003168868061
0.0003168893689
0.0003168912979
0.000316888643
0.0003168878743
0.0003168890812
0.0003168895168
0.00031688679
0.0003168853895
0.0003168879622
0.0003168884264
0.0003168876415
0.0003168859592
0.0003168887962
0.0003168898219
0.0003168901371
0.000316888258
0.0003168900808
0.0003168835467
0.0003168864874
0.0003168893303
0.0003168873957
0.0003168881805
0.0003168840759
0.0003168882797
0.0003168887723
0.0003168892904
0.0003168869449
0.0003168900757
0.0003168892985
0.0003168891675
0.000316891121
0.0003168899793
0.0003168892888
0.0003168901816
0.0003168872057
0.0003168851326
0.0003168902772
0.000316884804
0.0003168885415
0.0003168854542
0.0003168869857
0.000316887628
0.0003168899593
0.0003168841619
0.0003168864432
0.0003168871529
0.0003168844673
0.0003168894354
0.0003168870487
0.0003168857409
0.0003168869921
0.0003168844841
0.0003168892409
0.0003168894852
0.0003168778231
0.0003168883381
0.0003168875355
0.0003168861963
0.0003136585
0.0003142889687
0.000313853889
0.000311314403
0.0003131103366
0.0003147618196
0.0003150930044
0.0003145269686
0.0003146459098
0.0003147960531
0.0003144387412
0.0003151128057
0.0003152019003
0.0003161471891
0.0003150763768
0.0003148095856
0.0003151776654
0.0003147068257
0.0003098667558
0.0002966378628
0.0002975727822
0.0002723234323
0.0002949651813
0.0002743782376
0.0003141182699
0.0002882757834
0.0003022473697
0.0003127205118
0.000297310505
0.0003017523588
0.0002699454824
0.0002992395733
0.0003111029967
0.0003011752388
0.0003163254862
0.000316887417
0.0003168872539
0.0003168854356
0.0003168862087
0.0003168855753
0.0003168906161
0.0003168852046
0.0003168893145
0.0003167741233
0.000316889234
0.000316884832
0.000316887063
0.0003168851906
0.0003168813041
0.0003168848533
0.0003168843742
0.0003168872163
0.0003168867497
0.0003168855288
0.0003168871583
0.0003168895854
0.0003168881767
0.0003168865476
0.0003168880177
0.0003168891999
0.0003168861209
0.0003168869573
0.0003143666749
0.0003147035723
0.0003154874889
0.0003144585272
0.0003131816992
0.0003134991398
0.0003156319657
0.0003133219964
0.0003135907943
0.000315555263
0.0003140559617
0.000314125474
0.0003111817245
0.0003051126665
0.0002924784965
0.0002723721819
0.0002837447675
0.0003087234568
0.0002728909172
0.0002695267262
0.0002644123106
0.0002809475477
1.065434555e-06
0.0002871677663
0.0003058986298
0.0003168862678
0.0003168806757
0.0003168836105
0.0003168828725
0.0003168882267
0.0003168843831
0.0003168900953
0.0003168883918
0.000316889884
0.0003168900185
0.000316882647
0.0003168882241
0.000316884147
0.0003168857884
0.0003168822674
0.0003168867957
0.0003168885295
0.0003168874785
0.0003153583757
0.0003168844749
0.0003168908808
0.0003168830012
0.0003168878941
0.0003168790112
0.0003168894348
0.0003168810996
0.000314015781
0.0003145184419
0.0003113895121
0.0003140204555
0.000314031482
0.0003158542621
0.0003142614308
0.0003150322029
0.0003160637671
0.0003149593282
0.0003046359048
0.000276944391
0.0002761273457
0.0002841066928
0.0002852880271
0.0003155505024
0.0003086379081
0.0003126104325
0.0002908278827
0.0003079680371
0.0003087309283
0.000311120934
0.0002936295899
0.0003101745696
1.065469634e-06
1.065493023e-06
1.065515778e-06
1.065449984e-06
1.065541439e-06
1.065520092e-06
0.0002625379041
1.065545608e-06
5.838999557e-05
1.065428002e-06
0.00031109081
0.0003168872229
0.0003168894008
0.0003168877647
0.0003168893644
0.0003168861505
0.0003168899479
0.0003168858986
0.0003168882075
0.0003168878256
0.000316888323
0.0003168867611
0.0003168898487
0.0003168867739
0.0003168888296
0.000316888577
0.0003168906728
0.0003168876514
0.0003168750351
0.0003168875984
0.0003168887269
0.0003168892877
0.0003168891297
0.0003168861901
0.000316889229
0.0003168894103
0.0003168902459
0.0003168864808
0.0003168888248
0.0003168846812
0.0003168876333
0.0003168856098
0.0003168883894
0.0003168883577
0.0003168874402
0.0003168884644
0.0003168816355
0.0003168841696
0.0003168876449
0.0003114153969
0.000314779472
0.000315243859
0.0003152511059
0.0003118481006
0.0003113544036
0.0003148317602
0.0003151992389
0.0003158224438
0.0003151579983
0.0003059085692
0.0003139472669
0.0003139637547
0.0003136700035
0.0003132684786
0.0003143560938
0.0003139143213
0.0003148085495
0.0003138115779
0.0003141676691
0.0003148341379
0.0003102937737
0.0002733714628
0.0002877029018
0.0002716809572
0.000287668764
0.0003133043622
0.0003061640132
0.0002779925774
0.0002943292223
0.0002822214122
0.0003149618693
0.0003141641561
0.0002795336611
0.0002815652014
0.000278404462
0.0002744391464
0.0002883702188
0.0002727085461
0.0003168901457
0.0003167795143
0.0003168888716
0.0003168898237
0.0003168899724
0.0003168855679
0.00031643242
0.0003168892251
0.0003168831674
0.0003168829209
0.0003168859024
0.0003168802395
0.0003164399524
0.0003168879575
0.0003168862186
0.0003168868153
0.0003168853397
0.0003168872441
0.0003168865561
0.0003168888394
0.0003168859105
0.000316883423
0.0003168848111
0.0003168849542
0.0003168852531
0.0003139896539
0.000315875599
0.0003155410125
0.0003156210797
0.000315604868
0.0003158351226
0.000315542923
0.0003141494808
0.0003150772693
0.0003152512726
0.000314596323
0.0002843042425
0.0002936132204
0.0002904015058
0.0002885760338
0.0003069500761
0.0002853851383
0.0003069990188
0.0002993648085
0.0003150167817
0.0003031184263
0.000315383593
0.0003131745682
1.065531353e-06
0.0002998935394
0.0003168902959
0.000316885838
0.000316881511
0.0003168890626
0.0003168837056
0.0003168870654
0.0003168861772
0.0003168845888
0.0003168830222
0.0003168845561
0.0003168722631
0.0003168887796
0.0003168907712
0.000316890474
0.000316889026
0.0003168864115
0.0003168886564
0.0003168830817
0.0003168861124
0.0003168839912
0.0003168873933
0.0003168832696
0.0003168897609
0.0003168827488
0.000316885311
0.0003143253355
0.0003145887441
0.0003158181627
0.0003144506757
0.0003144678664
0.0003158478812
0.0003142784649
0.0003145593515
0.0003144412699
0.0003154169829
0.0003150120646
0.0003139546816
0.0002741336002
0.0002900899938
0.0002918687538
0.0003035382295
0.0002944179698
0.0002965604136
0.0003125778239
0.0003126246645
0.0003006898472
0.0002736289951
0.0002903730457
0.0002791623916
0.0003122232008
0.0002741514203
1.065495913e-06
1.065460632e-06
0.0003168866813
0.0003168881508
0.0003168874016
0.0003168884836
0.0003168871067
0.0003168884566
0.0003168827548
0.0003168831987
0.0003168860537
0.000316890084
0.0003168875017
0.0003168880245
0.0003168895116
0.0003168900705
0.0003168862561
0.0003168874552
0.0003168885674
0.0003168841281
0.0003168694113
0.0003168864618
0.0003168864165
0.0003168810897
0.0003168892515
0.0003168891222
0.0003168891519
0.000316888148
0.0003168862525
0.0003168856526
0.0003168872615
0.0003168862222
0.000316885878
0.000316889744
0.0003168870441
0.0003126732532
0.0003141927115
0.0003129067619
0.0003143847537
0.0003130423928
0.0003129433222
0.0003147110956
0.0003148993636
0.0003144452214
0.0002984826536
0.0003144090262
0.0003118343123
0.0003120959717
0.0003126669425
0.0003127578862
0.0003155815703
0.0003115922295
0.0003115479796
0.0003130209263
0.0003154303231
0.0003004254825
0.0002764673623
0.0003105215736
0.0003137097794
1.06547037e-06
0.000284542805
0.0002822799304
0.0003096243069
0.0002779607917
0.0002992391101
0.0003058199118
0.0002737494679
0.0003106637953
0.0002833040347
0.0002916431538
0.000310922372
0.0003168847039
0.0003168860821
0.0003168856657
0.0003168888971
0.0003168841623
0.0003168899607
0.0003164964839
0.0003168845078
0.0003168844309
0.0003162983792
0.0003168896778
0.0003168809928
0.0003168866847
0.0003168799409
0.0003141424287
0.0003168835379
0.0003168851112
0.000316886228
0.000316883593
0.0003168895102
0.0003168762597
0.0003168877833
0.0003168868093
0.000316882149
0.0003168882703
0.0003168822953
0.0003168822699
0.0003168820742
0.0003124806435
0.0003155423177
0.0003123733638
0.0003127166018
0.0003149384991
0.0003149983341
0.0003149038924
0.00031176101
0.000314671007
0.0003143255588
1.065536324e-06
0.0002979901497
0.0002847530259
1.065435467e-06
0.0003148041649
0.0002741384728
0.0003136241862
0.0003036222309
1.065497584e-06
0.0002979503995
0.0003123124498
0.0002710163912
0.0002764068591
0.0003168878686
0.000316559951
0.0003168839576
0.0003168893364
0.0003168839587
0.000316888059
0.0003168851259
0.0003168896378
0.0003168811382
0.0003168856082
0.0003168829192
0.0003168862508
0.000316882924
0.0003168855935
0.0003168844322
0.0003168862774
0.0003168847662
0.0003168849433
0.0003168867844
0.0003168866543
0.0003168816795
0.0003168818343
0.0003168870086
0.0003168839511
0.0003168855167
0.0003168876195
0.00031688284
0.0003168865148
0.0003131462512
0.0003133881308
0.0003146412223
0.0003140669138
0.0003099366847
0.0003098482619
0.0003140304349
0.0003087378467
0.0003093779796
0.000315966311
0.0003150733316
0.0003129716164
0.0003167701886
0.0003149984967
0.0003152952114
0.0002985725349
0.00031214756
0.0002640485986
0.0003097844443
0.0002866677697
0.0002803629702
0.0003044754729
0.0003089936363
0.0002853744368
0.0003146405928
0.0002899745166
1.065469838e-06
8.630215478e-05
1.065509705e-06
1.065473831e-06
1.065408665e-06
1.065534193e-06
1.06552383e-06
0.0002530212596
1.065447897e-06
1.065519599e-06
1.065440412e-06
0.0002411750838
1.065466621e-06
0.0003168816823
0.0003168855646
0.0003168857975
0.0003168840678
0.0003168867591
0.0003168885524
0.0003168896096
0.0003168906047
0.0003168881668
0.0003168869175
0.0003168868434
0.0003168897315
0.000316890571
0.000316889915
0.0003168890562
0.0003168895488
0.0003168869041
0.0003168897332
0.0003168889703
0.0003168902464
0.0003168859953
0.0003168816259
0.0003168891283
0.0003168848449
0.0003168884621
0.0003168893079
0.0003168866878
0.0003168802533
0.0003168900941
0.0003168874824
0.0003168842608
0.0003168863891
0.000316886782
0.000316888363
0.000316889346
0.0003168870027
0.0003168888979
0.0003155508331
0.0003151650428
0.0003140044418
0.0003137732425
0.0003156044136
0.0003151333541
0.0003046759006
0.0003156207655
0.0003127298325
0.0003145275843
0.0003141104872
0.0003140289049
0.0003060108853
0.0003158079941
0.0003122918954
0.0003150308618
0.0003111097557
0.0003123351673
1.065414426e-06
0.0002735802595
0.0003130477531
0.0002914517472
0.0003103069724
0.0002998143574
0.0002737167379
0.0003145533179
0.0003134351131
0.000286704827
0.0002856622038
0.0002755133605
0.0002817913007
0.0003076172759
0.000293343077
0.0003154477025
0.0002687233619
0.0002851748709
0.0002985460214
0.0003168860683
0.0003168865478
0.0003168869531
0.0003168893445
0.0003168834231
0.0003168840005
0.0003168865813
0.0003168848047
0.0003168292826
0.0003168863658
0.0003168823288
0.0003168871277
0.0003168839636
0.0003168889332
0.0003168876099
0.0003168872824
0.0003168813014
0.0003168872037
0.0003168784934
0.0003168846607
0.0003168877362
0.0003168849133
0.0003168888668
0.0003168824943
0.0003129629101
0.0003137062541
0.0003147983229
0.0003128222639
0.0003131292681
0.0003131458751
0.0003117901484
0.0003147032917
0.0003151173154
0.0003120092186
0.0003126693802
0.0003132644388
0.0003134798949
0.0003127747874
0.0003134034048
0.0003120710408
0.0002760959767
0.0002654380883
0.0002908246927
0.0002978623148
0.0003041796182
0.000300860653
0.000309387184
0.0002720868269
0.0002751323892
0.0002939702999
0.0003103404159
1.06542689e-06
0.0003168901766
0.0003168871266
0.0003168884873
0.0003168893381
0.0003168863587
0.000316890568
0.0003168864933
0.0003161247432
0.0003168894289
0.0003168852973
0.0003168887192
0.0003168902974
0.0003168851482
0.0003168873367
0.0003168838699
0.000316888996
0.0003168891109
0.0003168856626
0.0003168850281
0.0003168873353
0.0003168883637
0.0003168869925
0.0003168884713
0.0003168859764
0.000316885034
0.0003168868969
0.0003161415758
0.0003124803294
0.0003161939081
0.0003144299709
0.0003150566344
0.0003155951067
0.0003149552178
0.0003160660652
0.0003141494698
0.0003158341602
0.000313843929
0.0003142276356
0.0003159589308
0.0003037020328
0.0003118460031
0.0002843699796
0.0003046344331
0.0002896423958
0.0003080371726
0.000310353879
0.0003119213507
0.0002801635905
0.0002700537345
0.0003032211331
0.0002992522765
1.065488475e-06
1.06542513e-06
1.065477355e-06
0.000125598986
1.065432943e-06
0.0002591279217
1.065439769e-06
1.065516385e-06
1.065558743e-06
1.065514619e-06
1.065525245e-06
1.065480133e-06
1.065441765e-06
1.065562693e-06
1.065605841e-06
1.065426797e-06
1.065506894e-06
1.065523709e-06
1.065439101e-06
1.065472914e-06
1.065407354e-06
1.065540612e-06
1.065505105e-06
1.065526935e-06
1.065414078e-06
1.065458931e-06
1.065452985e-06
1.065407202e-06
1.06551886e-06
1.065552551e-06
1.06540769e-06
1.065462124e-06
1.065482434e-06
1.065418616e-06
1.065491076e-06
1.065479076e-06
1.065605818e-06
1.065467558e-06
1.065423606e-06
1.065419377e-06
1.06555213e-06
1.06560535e-06
1.065491134e-06
1.065458454e-06
1.065420031e-06
1.065570009e-06
1.065478849e-06
1.065460343e-06
1.065565751e-06
1.06548633e-06
1.06558608e-06
1.065534391e-06
1.065517916e-06
1.065426044e-06
1.065593238e-06
1.065593533e-06
1.065450614e-06
1.065507675e-06
1.065577617e-06
1.065504442e-06
1.065483331e-06
1.065433769e-06
1.065589765e-06
1.065430538e-06
1.06553109e-06
1.065549339e-06
1.065584096e-06
1.065434336e-06
1.065553657e-06
1.065420326e-06
1.065444294e-06
1.065515066e-06
1.065440731e-06
1.065411827e-06
1.065414649e-06
1.065463104e-06
1.065499747e-06
1.065408758e-06
1.065468243e-06
1.065478392e-06
1.065418625e-06
1.065525099e-06
1.065541901e-06
1.065603551e-06
1.065563954e-06
1.065495157e-06
1.065524919e-06
1.065519799e-06
1.065491591e-06
1.065459049e-06
1.065563741e-06
1.065515384e-06
1.065568e-06
1.065486765e-06
1.06551303e-06
1.065489988e-06
1.065522494e-06
1.065523951e-06
1.065562409e-06
1.065490637e-06
1.065535807e-06
1.06541524e-06
1.065519486e-06
1.065573503e-06
1.065577641e-06
1.065515713e-06
1.065497652e-06
1.065455667e-06
1.065440996e-06
1.065555323e-06
1.065487269e-06
1.065489716e-06
1.065546016e-06
1.065594563e-06
1.065514617e-06
1.06557514e-06
1.06558954e-06
1.065496498e-06
1.065460842e-06
1.065550432e-06
1.065493964e-06
1.065603533e-06
1.065599992e-06
1.065593214e-06
1.065489946e-06
1.065431582e-06
1.065571334e-06
1.065406753e-06
1.065539231e-06
1.065464137e-06
1.065407399e-06
1.06551168e-06
1.065482275e-06
1.065517046e-06
1.065562199e-06
1.065523057e-06
1.065430579e-06
1.065468944e-06
1.06550288e-06
1.065438832e-06
1.065553763e-06
1.065516284e-06
1.065429584e-06
1.065429082e-06
1.065469647e-06
1.065432384e-06
1.065470064e-06
1.066563962e-06
1.065529521e-06
1.065418241e-06
1.065426063e-06
1.065430986e-06
1.065571378e-06
1.065506783e-06
1.065558796e-06
1.065523615e-06
1.065440565e-06
1.065598912e-06
1.065586452e-06
1.065569904e-06
1.065540655e-06
1.065603869e-06
1.065561929e-06
1.06557884e-06
1.065610237e-06
1.06545011e-06
1.065431297e-06
1.065590419e-06
1.065406384e-06
1.065456732e-06
1.065579121e-06
1.065599465e-06
1.065435518e-06
1.06548535e-06
1.06552764e-06
1.065451876e-06
1.0655348e-06
1.065533641e-06
1.065479844e-06
1.065417598e-06
1.065460507e-06
1.065497609e-06
1.065421977e-06
1.065461142e-06
1.065472636e-06
1.065453173e-06
1.065428005e-06
1.06542681e-06
1.065406906e-06
1.065593741e-06
1.065494926e-06
1.065582969e-06
1.065520958e-06
1.065496951e-06
1.065461453e-06
1.065418439e-06
1.065493944e-06
1.065497227e-06
1.065445618e-06
1.065551197e-06
1.065498608e-06
1.06552636e-06
1.065435335e-06
1.065543853e-06
1.065500101e-06
1.065577965e-06
1.065525414e-06
1.065486814e-06
1.065543192e-06
1.065550503e-06
1.065548946e-06
1.065487808e-06
1.065503976e-06
1.065456783e-06
1.065597017e-06
1.065423009e-06
1.065421219e-06
1.065477728e-06
1.065561183e-06
1.065450692e-06
1.065522787e-06
1.065462696e-06
1.06548057e-06
1.065601067e-06
1.065439651e-06
1.065409459e-06
1.065550597e-06
1.065454047e-06
1.065445527e-06
1.065490724e-06
1.065582839e-06
1.065557692e-06
1.065606517e-06
1.065535804e-06
1.065586928e-06
1.06556259e-06
1.065444804e-06
1.0655349e-06
1.065523003e-06
1.06556932e-06
1.065517302e-06
1.065453918e-06
1.065415242e-06
1.06552142e-06
1.065525902e-06
1.065465941e-06
1.06553486e-06
1.06542375e-06
1.065483883e-06
1.06547067e-06
1.06556074e-06
1.065590677e-06
1.065586328e-06
1.065463901e-06
1.065447549e-06
1.065434559e-06
1.065460904e-06
1.065577213e-06
1.065569933e-06
1.06555843e-06
1.065453015e-06
1.065528545e-06
1.065555762e-06
1.065489029e-06
1.065570235e-06
1.06542893e-06
1.065439203e-06
1.065596156e-06
1.065520037e-06
1.065512089e-06
1.065438609e-06
1.06550676e-06
1.065416352e-06
1.06540895e-06
1.065557041e-06
1.065474025e-06
1.065415542e-06
1.065470443e-06
1.065498362e-06
1.065481006e-06
1.065501643e-06
1.065552725e-06
1.065535612e-06
1.065561473e-06
1.06557396e-06
1.065541662e-06
1.065541663e-06
1.065487988e-06
1.065481516e-06
1.065582984e-06
1.065592867e-06
1.065429359e-06
1.065560334e-06
1.065474815e-06
1.065442122e-06
1.065544481e-06
1.06551736e-06
1.065459158e-06
1.065507382e-06
1.06549965e-06
1.065598196e-06
1.065573144e-06
1.065554231e-06
1.065417188e-06
1.065487972e-06
1.065610924e-06
1.065416607e-06
1.065455848e-06
1.065428873e-06
1.065590531e-06
1.065479785e-06
1.065471424e-06
1.065524437e-06
1.065427911e-06
1.065521418e-06
1.065418451e-06
1.065506405e-06
1.065481336e-06
1.065579406e-06
1.06541652e-06
1.065474672e-06
1.065419474e-06
1.06545336e-06
1.065575159e-06
1.065611333e-06
1.065410936e-06
1.065415328e-06
1.065483701e-06
1.065552721e-06
1.065484386e-06
1.065570359e-06
1.065525302e-06
1.065527799e-06
1.065429658e-06
1.065409418e-06
1.065479072e-06
1.065562129e-06
1.065490305e-06
1.065599817e-06
1.065502157e-06
1.06542971e-06
1.065413754e-06
1.065521592e-06
1.065469148e-06
1.065467672e-06
1.065602608e-06
1.065603636e-06