/*--------------------------------*- C++ -*----------------------------------*\
  =========                 |
  \\      /  F ield         | OpenFOAM: The Open Source CFD Toolbox
   \\    /   O peration     | Website:  https://openfoam.org
    \\  /    A nd           | Version:  7
     \\/     M anipulation  |
\*---------------------------------------------------------------------------*/
FoamFile
{
    version     2.0;
    format      ascii;
    class       scalarField;
    location    "2/lagrangian/coalCloud1";
    object      mp1;
}
// * * * * * * * * * * * * * * * * * * * * * * * * * * * * * * * * * * * * * //


2000
(
2.197708234e-06
2.200875035e-06
2.202197318e-06
2.201489783e-06
2.201359379e-06
2.201115546e-06
2.201615064e-06
2.199128032e-06
2.200198818e-06
2.198917724e-06
2.199955162e-06
2.198633906e-06
2.201914075e-06
2.199553572e-06
2.201963958e-06
2.202467473e-06
2.208154631e-06
2.200009691e-06
2.199464585e-06
2.201374688e-06
2.198915682e-06
2.201464387e-06
2.201045233e-06
2.20433849e-06
2.197898406e-06
2.200699176e-06
2.200949243e-06
2.198839824e-06
2.199555826e-06
2.200261695e-06
2.200374139e-06
2.200486898e-06
2.200914043e-06
2.202599668e-06
2.200163169e-06
2.198702482e-06
2.199345103e-06
2.20190333e-06
2.199647729e-06
2.19936176e-06
2.198497689e-06
2.198426281e-06
2.200489999e-06
2.200571199e-06
2.199360397e-06
2.203057673e-06
2.202560945e-06
2.20088282e-06
2.198484331e-06
2.197543932e-06
2.198782513e-06
2.200132078e-06
2.202710214e-06
2.198606257e-06
2.199427461e-06
2.199365645e-06
2.197884143e-06
2.198743462e-06
2.201440137e-06
2.199191657e-06
2.198195317e-06
2.200462282e-06
2.201361217e-06
2.200278031e-06
2.200987381e-06
2.201683015e-06
2.199569674e-06
2.204940683e-06
2.19972793e-06
2.202171683e-06
2.199658292e-06
2.201052119e-06
2.201459563e-06
2.20080724e-06
2.199517332e-06
2.197968594e-06
2.198997989e-06
2.201561159e-06
2.202453076e-06
2.202594325e-06
2.204447048e-06
2.200106464e-06
2.200157557e-06
2.205059634e-06
2.203712803e-06
2.201412421e-06
2.206614635e-06
2.200511417e-06
2.198722278e-06
2.204594125e-06
2.200150928e-06
2.200853702e-06
2.205255904e-06
2.200656528e-06
2.199773794e-06
2.20149756e-06
2.200546124e-06
2.20069363e-06
2.200866371e-06
2.200630628e-06
2.204984375e-06
2.199274486e-06
2.200603572e-06
2.200017199e-06
2.199698787e-06
2.20077788e-06
2.200735105e-06
2.20270802e-06
2.200959016e-06
2.201224642e-06
2.203533418e-06
2.201748807e-06
2.20327851e-06
2.20011249e-06
2.20128963e-06
2.19884011e-06
2.198354428e-06
2.202167023e-06
2.200947149e-06
2.201458941e-06
2.199766034e-06
2.201802634e-06
2.199600483e-06
2.201245451e-06
2.201038837e-06
2.200814018e-06
2.201051931e-06
2.200003281e-06
2.200800408e-06
2.206749159e-06
2.202799745e-06
2.199204732e-06
2.199353625e-06
2.200633315e-06
2.199990392e-06
2.203810426e-06
2.199173468e-06
2.200448966e-06
2.196865469e-06
2.200463391e-06
2.201108966e-06
2.201148544e-06
2.199531855e-06
2.204172147e-06
2.199205638e-06
2.19807377e-06
2.201630283e-06
2.201228446e-06
2.199937571e-06
2.200186535e-06
2.201894512e-06
2.201824051e-06
2.201336581e-06
2.202171622e-06
2.203257263e-06
2.198143517e-06
2.201522163e-06
2.198934016e-06
2.200516004e-06
2.198523992e-06
2.198572393e-06
2.200930569e-06
2.201386292e-06
2.199570579e-06
2.201230392e-06
2.201026728e-06
2.203260989e-06
2.198864769e-06
2.199690783e-06
2.200816424e-06
2.20086797e-06
2.200302592e-06
2.201457932e-06
2.200155477e-06
2.200383982e-06
2.198153716e-06
2.201000363e-06
2.200798949e-06
2.199735957e-06
2.199000571e-06
2.204028059e-06
2.199670732e-06
2.200143275e-06
2.202570935e-06
2.205287053e-06
2.203131675e-06
2.200403018e-06
2.202106656e-06
2.200911131e-06
2.202398015e-06
2.199035809e-06
2.20043991e-06
2.203775404e-06
2.199620523e-06
2.203281871e-06
2.201525115e-06
2.201826577e-06
2.198028097e-06
2.200961449e-06
2.199488557e-06
2.200423868e-06
2.200829621e-06
2.20068757e-06
2.203083402e-06
2.200293338e-06
2.199825696e-06
2.200687748e-06
2.203318609e-06
2.200301217e-06
2.200010193e-06
2.199556033e-06
2.201241966e-06
2.208997566e-06
2.202300965e-06
2.203273455e-06
2.200709181e-06
2.200144195e-06
2.19985138e-06
2.198715914e-06
2.202572798e-06
2.199753452e-06
2.201034851e-06
2.196968893e-06
2.197234117e-06
2.200595155e-06
2.199668751e-06
2.197823784e-06
2.198824879e-06
2.201216181e-06
2.198329696e-06
2.201899507e-06
2.198903448e-06
2.200444764e-06
2.201933681e-06
2.201141533e-06
2.197898562e-06
2.19882704e-06
2.2016864e-06
2.200263791e-06
2.199008771e-06
2.198194449e-06
2.199428448e-06
2.198019383e-06
2.198709702e-06
2.198246476e-06
2.19951676e-06
2.198065248e-06
2.198935046e-06
2.19864291e-06
2.199352739e-06
2.1977736e-06
2.205414972e-06
2.200458102e-06
2.198037525e-06
2.198546516e-06
2.198599069e-06
2.202946536e-06
2.198638594e-06
2.198288744e-06
2.198319927e-06
2.198138996e-06
2.198742448e-06
2.199181573e-06
2.200341051e-06
2.198317193e-06
2.201832269e-06
2.198927735e-06
2.198699975e-06
2.205437541e-06
2.197905718e-06
2.200225781e-06
2.201049143e-06
2.199563519e-06
2.202062084e-06
2.20023584e-06
2.204222526e-06
2.200069166e-06
2.200783396e-06
2.201928532e-06
2.203422843e-06
2.202336029e-06
2.201543348e-06
2.202762319e-06
2.201244579e-06
2.202121733e-06
2.201537299e-06
2.206326269e-06
2.19918735e-06
2.202612465e-06
2.202866236e-06
2.201524649e-06
2.200640921e-06
2.198668104e-06
2.200767746e-06
2.201993925e-06
2.201888384e-06
2.201623881e-06
2.200835663e-06
2.202013465e-06
2.203634374e-06
2.202157121e-06
2.206123865e-06
2.198401836e-06
2.200527908e-06
2.199908202e-06
2.201730233e-06
2.198998614e-06
2.200261659e-06
2.203231956e-06
2.200452404e-06
2.202827616e-06
2.202138963e-06
2.20033032e-06
2.199437375e-06
2.200788458e-06
2.200710473e-06
2.202107764e-06
2.200419574e-06
2.204097227e-06
2.198176261e-06
2.201691163e-06
2.202328234e-06
2.200728734e-06
2.199601919e-06
2.202044335e-06
2.200360117e-06
2.203486408e-06
2.198933722e-06
2.202107652e-06
2.198608593e-06
2.205424703e-06
2.201898479e-06
2.201457558e-06
2.199970549e-06
2.199936608e-06
2.199205621e-06
2.204479449e-06
2.199049579e-06
2.199431403e-06
2.199920302e-06
2.199390178e-06
2.200352874e-06
2.20199295e-06
2.212241993e-06
2.205698386e-06
2.204483691e-06
2.201339623e-06
2.201330772e-06
2.200820272e-06
2.201838075e-06
2.202553072e-06
2.199731012e-06
2.200700996e-06
2.200776625e-06
2.199836892e-06
2.201784113e-06
2.200519357e-06
2.200715149e-06
2.201775605e-06
2.196737336e-06
2.201931671e-06
2.201241718e-06
2.202985287e-06
2.198064811e-06
2.198255801e-06
2.202844957e-06
2.202843172e-06
2.201912712e-06
2.201223739e-06
2.201164684e-06
2.201249239e-06
2.202308645e-06
2.198622851e-06
2.202679814e-06
2.198090167e-06
2.199872949e-06
2.198581861e-06
2.202844327e-06
2.206042506e-06
2.203135171e-06
2.201922433e-06
2.200332736e-06
2.200808807e-06
2.201375168e-06
2.199157477e-06
2.20064535e-06
2.201159613e-06
2.206121427e-06
2.203103101e-06
2.201114996e-06
2.198081222e-06
2.198969037e-06
2.205221468e-06
2.19928915e-06
2.199055386e-06
2.202442333e-06
2.198698041e-06
2.201776571e-06
2.201194469e-06
2.201631301e-06
2.200914222e-06
2.200431599e-06
2.199078451e-06
2.20001111e-06
2.20370417e-06
2.202574593e-06
2.199827235e-06
2.198791723e-06
2.199453677e-06
2.201277782e-06
2.201414814e-06
2.204933838e-06
2.198936676e-06
2.200003158e-06
2.1988432e-06
2.1996463e-06
2.198840771e-06
2.200907671e-06
2.203713441e-06
2.20147619e-06
2.198451891e-06
2.199431942e-06
2.197704946e-06
2.200383749e-06
2.198754342e-06
2.20074421e-06
2.199097983e-06
2.197632773e-06
2.203187478e-06
2.200037487e-06
2.202429712e-06
2.201151357e-06
2.199050646e-06
2.198954662e-06
2.198253626e-06
2.200899547e-06
2.198699039e-06
2.203454953e-06
2.202313754e-06
2.20089258e-06
2.199602146e-06
2.201984225e-06
2.200596241e-06
2.200188972e-06
2.202968666e-06
2.1992463e-06
2.1986979e-06
2.20113478e-06
2.200188118e-06
2.201470676e-06
2.20116198e-06
2.201975181e-06
2.198766051e-06
2.198900648e-06
2.200775932e-06
2.202314233e-06
2.199874894e-06
2.202604518e-06
2.199317416e-06
2.203192864e-06
2.20023428e-06
2.199735893e-06
2.200031222e-06
2.203342248e-06
2.199621295e-06
2.201532706e-06
2.200428938e-06
2.20193707e-06
2.202520222e-06
2.20136159e-06
2.203074288e-06
2.202952818e-06
2.205439588e-06
2.198544544e-06
2.199858327e-06
2.201863737e-06
2.199930277e-06
2.199574388e-06
2.201086947e-06
2.201136788e-06
2.20018126e-06
2.202149259e-06
2.200967304e-06
2.199092328e-06
2.203664898e-06
2.201173896e-06
2.20358895e-06
2.199641156e-06
2.199339591e-06
2.202730926e-06
2.201947362e-06
2.202133389e-06
2.19967435e-06
2.201666863e-06
2.199908638e-06
2.200426015e-06
2.20123625e-06
2.199391365e-06
2.197494426e-06
2.204861353e-06
2.202857203e-06
2.19743421e-06
2.203248146e-06
2.203543223e-06
2.201043908e-06
2.200528563e-06
2.200818581e-06
2.19899858e-06
2.199997273e-06
2.200794684e-06
2.200036376e-06
2.200468505e-06
2.202127669e-06
2.201124328e-06
2.201456732e-06
2.200199178e-06
2.203308487e-06
2.200996702e-06
2.200020517e-06
2.202824395e-06
2.203256236e-06
2.204287167e-06
2.204367736e-06
2.199583957e-06
2.200044821e-06
2.202911228e-06
2.20328817e-06
2.200447671e-06
2.206122884e-06
2.203321921e-06
2.205817519e-06
2.200080512e-06
2.201094148e-06
2.201659517e-06
2.201393187e-06
2.202243278e-06
2.199535303e-06
2.201907747e-06
2.199621919e-06
2.199294297e-06
2.200287886e-06
2.200215326e-06
2.198576456e-06
2.20106664e-06
2.199544952e-06
2.200298693e-06
2.201368635e-06
2.199293548e-06
2.201850098e-06
2.19972133e-06
2.201334712e-06
2.200145989e-06
2.201179937e-06
2.202282783e-06
2.200048851e-06
2.200931996e-06
2.198742939e-06
2.197330443e-06
2.199214291e-06
2.201003526e-06
2.197278679e-06
2.200487736e-06
2.200304119e-06
2.200498869e-06
2.205902434e-06
2.201532129e-06
2.205422274e-06
2.203280257e-06
2.198380754e-06
2.202246097e-06
2.200663119e-06
2.202714848e-06
2.198393008e-06
2.200483533e-06
2.200806573e-06
2.202186348e-06
2.202677748e-06
2.199572225e-06
2.200962312e-06
2.338614922e-06
2.203318652e-06
2.199703009e-06
2.207040454e-06
2.203135727e-06
2.202072049e-06
2.202406001e-06
2.202670752e-06
2.19833663e-06
2.202095288e-06
2.20037836e-06
2.199348731e-06
2.201849867e-06
2.200464415e-06
2.199173651e-06
2.202387094e-06
2.203284157e-06
2.199456234e-06
2.201659808e-06
2.199789319e-06
2.201104076e-06
2.201630022e-06
2.202102788e-06
2.200819108e-06
2.200625075e-06
2.198471055e-06
2.198651853e-06
2.202032067e-06
2.201884235e-06
2.203333268e-06
2.198593907e-06
2.19731806e-06
2.199907991e-06
2.199156938e-06
2.201903919e-06
2.197972019e-06
2.199563702e-06
2.200722993e-06
2.200621829e-06
2.198697418e-06
2.199844477e-06
2.201191113e-06
2.199416203e-06
2.200598867e-06
2.198142953e-06
2.197511592e-06
2.201034772e-06
2.199265627e-06
2.201124046e-06
2.200157242e-06
2.19970878e-06
2.198312825e-06
2.201275293e-06
2.200972852e-06
2.202450862e-06
2.199374129e-06
2.20111307e-06
2.200545547e-06
2.199639618e-06
2.200764583e-06
2.200294317e-06
2.201012559e-06
2.197990228e-06
2.198497171e-06
2.200238458e-06
2.199203525e-06
2.200748926e-06
2.200630276e-06
2.202686525e-06
2.199165712e-06
2.200595055e-06
2.199044313e-06
2.198830935e-06
2.198487318e-06
2.199685864e-06
2.201823999e-06
2.198291905e-06
2.199927153e-06
2.201577112e-06
2.198547292e-06
2.203871927e-06
2.200963578e-06
2.202951068e-06
2.19800912e-06
2.200211244e-06
2.199388029e-06
2.200422545e-06
2.20134555e-06
2.221426427e-06
2.200614286e-06
2.200692214e-06
2.200599962e-06
2.202514081e-06
2.199021976e-06
2.199736091e-06
2.202670235e-06
2.200382428e-06
2.20184333e-06
2.199068424e-06
2.202274853e-06
2.201891378e-06
2.205275887e-06
2.201379009e-06
2.203557763e-06
2.200152666e-06
2.201573117e-06
2.201556455e-06
2.199929316e-06
2.197821559e-06
2.200246265e-06
2.202735737e-06
2.199289123e-06
2.202254727e-06
2.200477455e-06
2.2010087e-06
2.198273192e-06
2.202037029e-06
2.19870026e-06
2.202376476e-06
2.201673411e-06
2.203769404e-06
2.202444055e-06
2.198168507e-06
2.198783343e-06
2.202935621e-06
2.200716575e-06
2.201762122e-06
2.201719747e-06
2.201546308e-06
2.20667381e-06
2.199234268e-06
2.202118069e-06
2.201669652e-06
2.199448084e-06
2.202046194e-06
2.202180459e-06
2.19947317e-06
2.199459647e-06
2.202524403e-06
2.201582912e-06
2.207157605e-06
2.202586393e-06
2.20083993e-06
2.198855929e-06
2.203035001e-06
2.199903625e-06
2.203445951e-06
2.198902279e-06
2.201805058e-06
2.202012053e-06
2.202186988e-06
2.201465952e-06
2.201533816e-06
2.200095192e-06
2.201174115e-06
2.203518446e-06
2.20282225e-06
2.199677963e-06
2.203234135e-06
2.203479377e-06
2.199104096e-06
2.19939347e-06
2.200925805e-06
2.19923616e-06
2.199261308e-06
2.198963666e-06
2.201012099e-06
2.199804008e-06
2.201901315e-06
2.199173887e-06
2.200365814e-06
2.20199084e-06
2.199763782e-06
2.198087504e-06
2.200394563e-06
2.201062618e-06
2.200013855e-06
2.199635314e-06
2.202004906e-06
2.203221849e-06
2.200986218e-06
2.200582803e-06
2.201264849e-06
2.202726796e-06
2.200261463e-06
2.199370118e-06
2.199096218e-06
2.200729164e-06
2.199145226e-06
2.204823194e-06
2.202267849e-06
2.199797328e-06
2.201478396e-06
2.200796496e-06
2.204363299e-06
2.20071025e-06
2.200282205e-06
2.199831988e-06
2.20187019e-06
2.19914959e-06
2.199824998e-06
2.199938811e-06
2.198241261e-06
2.199233368e-06
2.199833444e-06
2.199057593e-06
2.201643674e-06
2.203445066e-06
2.1989745e-06
2.203730725e-06
2.200482768e-06
2.203165619e-06
2.201834725e-06
2.201276605e-06
2.199250791e-06
2.204288638e-06
2.202306228e-06
2.20168945e-06
2.204023146e-06
2.199706047e-06
2.201779991e-06
2.202916437e-06
2.201829195e-06
2.204008575e-06
2.199875062e-06
2.199662754e-06
2.209796919e-06
2.200659537e-06
2.201357095e-06
2.202520707e-06
5.007346162e-06
4.459477181e-06
4.837555709e-06
7.044335673e-06
5.483692988e-06
4.048576087e-06
3.760780846e-06
4.252658478e-06
4.149300097e-06
4.018827555e-06
4.329326933e-06
3.743573827e-06
3.666151759e-06
2.844708249e-06
3.775230002e-06
4.007068038e-06
3.687211541e-06
4.096365071e-06
8.302321878e-06
1.979805532e-05
1.898562256e-05
4.092697444e-05
2.125159344e-05
3.91413757e-05
4.607812206e-06
2.706459194e-05
1.492346791e-05
5.82244553e-06
1.921353808e-05
1.535362578e-05
4.299338132e-05
1.75372032e-05
7.228044844e-06
1.58551354e-05
2.68977047e-06
2.201459958e-06
2.201601694e-06
2.203181768e-06
2.20251004e-06
2.203060343e-06
2.198680024e-06
2.203382493e-06
2.199810982e-06
2.299910687e-06
2.199881018e-06
2.203706376e-06
2.20176755e-06
2.203394679e-06
2.206772013e-06
2.203687798e-06
2.204104062e-06
2.201634404e-06
2.202039992e-06
2.2031008e-06
2.201684784e-06
2.199575685e-06
2.200799752e-06
2.202215477e-06
2.200937997e-06
2.199910763e-06
2.202586206e-06
2.201859383e-06
4.39195157e-06
4.099192151e-06
3.41797902e-06
4.312133117e-06
5.421679869e-06
5.145828183e-06
3.29243057e-06
5.299763419e-06
5.066181517e-06
3.359084267e-06
4.661957305e-06
4.601551951e-06
7.159631498e-06
1.243356278e-05
2.341248968e-05
4.088461169e-05
3.100198489e-05
9.295833619e-06
4.043383749e-05
4.335727501e-05
4.780163461e-05
3.3432732e-05
4.334291851e-05
2.802744416e-05
1.175057101e-05
2.202458611e-06
2.207318071e-06
2.204767791e-06
2.205409075e-06
2.200756339e-06
2.204096437e-06
2.199132479e-06
2.20061291e-06
2.199316304e-06
2.19919931e-06
2.205605105e-06
2.200758629e-06
2.204301535e-06
2.202875191e-06
2.205934931e-06
2.20199988e-06
2.200493218e-06
2.201406567e-06
3.530176621e-06
2.204016629e-06
2.198450037e-06
2.205297294e-06
2.201045333e-06
2.208764511e-06
2.199706564e-06
2.206949716e-06
4.696873701e-06
4.260068077e-06
6.979066725e-06
4.69281166e-06
4.683229875e-06
3.09925799e-06
4.483407319e-06
3.813616605e-06
2.917200823e-06
3.876943676e-06
1.28478624e-05
3.691142238e-05
3.762142384e-05
3.068747663e-05
2.966091271e-05
3.363221104e-06
9.370174284e-06
5.918102986e-06
2.484685126e-05
9.952283425e-06
9.28934101e-06
7.212457627e-06
2.241220468e-05
8.034835806e-06
0.0001520983408
1.065410008e-06
0.0001432587783
6.207682064e-05
0.0001240184746
1.148801291e-05
4.943046907e-05
5.514842404e-05
0.0002258942829
9.114479657e-05
7.23863506e-06
2.201628592e-06
2.199736106e-06
2.201157786e-06
2.199767726e-06
2.202560638e-06
2.199260623e-06
2.202779423e-06
2.200772972e-06
2.201104913e-06
2.200672586e-06
2.202029965e-06
2.199346927e-06
2.202018837e-06
2.200232447e-06
2.20045196e-06
2.198630692e-06
2.201256297e-06
2.212219711e-06
2.201302332e-06
2.200321661e-06
2.199834357e-06
2.199971587e-06
2.202526142e-06
2.199885357e-06
2.199727781e-06
2.199001723e-06
2.202273564e-06
2.200236523e-06
2.203837311e-06
2.201272016e-06
2.203030451e-06
2.200614953e-06
2.200642542e-06
2.201439827e-06
2.200549789e-06
2.206483937e-06
2.204281963e-06
2.201261964e-06
6.956573291e-06
4.033236348e-06
3.629690224e-06
3.623392781e-06
6.580559459e-06
7.009575574e-06
3.987798546e-06
3.668464399e-06
3.126907561e-06
3.704302038e-06
1.174193378e-05
4.756411565e-06
4.742083882e-06
4.997349878e-06
5.346269665e-06
4.401146419e-06
4.785040982e-06
4.007968483e-06
4.874323571e-06
4.564884956e-06
3.985732385e-06
7.93124901e-06
4.001624967e-05
2.756241842e-05
4.148527675e-05
2.759208369e-05
5.315087377e-06
1.151995641e-05
3.600056221e-05
2.180423336e-05
3.232576063e-05
3.8747355e-06
4.567937766e-06
3.466138072e-05
3.289599911e-05
3.564263989e-05
3.908844684e-05
2.698252878e-05
4.059231556e-05
2.199088816e-06
2.295226002e-06
2.20019599e-06
2.199368554e-06
2.199239358e-06
2.203066738e-06
2.596846429e-06
2.199888635e-06
2.205152741e-06
2.20536702e-06
2.202776193e-06
2.207697077e-06
2.590300863e-06
2.200990241e-06
2.202501433e-06
2.201982837e-06
2.203265213e-06
2.201610151e-06
2.202208086e-06
2.200223904e-06
2.202769127e-06
2.2049307e-06
2.203724429e-06
2.203600154e-06
2.203340479e-06
4.719577895e-06
3.080716501e-06
3.371467715e-06
3.301890363e-06
3.315978172e-06
3.115889944e-06
3.369807451e-06
4.580690334e-06
3.77445435e-06
3.623247923e-06
4.192390349e-06
3.05158085e-05
2.242642964e-05
2.521736721e-05
2.680367826e-05
1.083687805e-05
2.957652432e-05
1.079434754e-05
1.742837541e-05
3.827017315e-06
1.416653116e-05
3.508263153e-06
5.427876608e-06
5.858391603e-06
1.696891536e-05
2.198958196e-06
2.202832034e-06
2.206592188e-06
2.200030038e-06
2.204685141e-06
2.201765563e-06
2.202537403e-06
2.203917666e-06
2.205279041e-06
2.203946071e-06
2.214628518e-06
2.200275882e-06
2.198545196e-06
2.198803469e-06
2.200061818e-06
2.20233376e-06
2.200382995e-06
2.205227292e-06
2.202593659e-06
2.204436995e-06
2.20148057e-06
2.205064013e-06
2.199423106e-06
2.205516471e-06
2.203290011e-06
4.427874926e-06
4.198976461e-06
3.130627844e-06
4.318955944e-06
4.30401748e-06
3.104802803e-06
4.468604985e-06
4.224518197e-06
4.327129502e-06
3.479247817e-06
3.831116403e-06
4.749968389e-06
3.935396237e-05
2.548806704e-05
2.394234801e-05
1.38017277e-05
2.172711299e-05
1.986535758e-05
5.946439502e-06
5.9057356e-06
1.627693431e-05
3.979245755e-05
2.524209868e-05
3.498400919e-05
6.254602186e-06
3.933847705e-05
4.365342829e-06
2.898569396e-05
2.202099299e-06
2.200822273e-06
2.201473413e-06
2.200533069e-06
2.201729631e-06
2.200556573e-06
2.205511381e-06
2.205125634e-06
2.202644635e-06
2.199142373e-06
2.20138644e-06
2.200932019e-06
2.199639748e-06
2.199154121e-06
2.202468859e-06
2.20142684e-06
2.200460319e-06
2.204318061e-06
2.21710662e-06
2.202290019e-06
2.202329359e-06
2.20695829e-06
2.199865877e-06
2.199978145e-06
2.199952386e-06
2.200824759e-06
2.202471889e-06
2.202993159e-06
2.201595009e-06
2.202498239e-06
2.202797353e-06
2.199437818e-06
2.201783998e-06
5.86351267e-06
4.543123504e-06
5.660596726e-06
4.376241368e-06
5.542735194e-06
5.628826334e-06
4.09265448e-06
3.929052206e-06
4.323695692e-06
1.81949564e-05
4.355148883e-06
6.592541332e-06
6.365162663e-06
5.868996594e-06
5.789967752e-06
3.336223471e-06
6.802907946e-06
6.841360499e-06
5.561389395e-06
3.467655363e-06
1.650666373e-05
3.732595393e-05
7.733293906e-06
4.962785123e-06
5.57239235e-05
3.030850077e-05
3.227490904e-05
8.513006673e-06
3.602818346e-05
1.753760568e-05
1.181897585e-05
3.968776835e-05
7.609705039e-06
3.138497594e-05
2.413839145e-05
7.385005342e-06
2.203817737e-06
2.202620016e-06
2.202981837e-06
2.200173715e-06
2.204288301e-06
2.199249479e-06
2.54117565e-06
2.20398797e-06
2.204054801e-06
2.71332598e-06
2.199495405e-06
2.207042596e-06
2.202096352e-06
2.207956562e-06
4.586818479e-06
2.204830793e-06
2.203463734e-06
2.202493149e-06
2.204783034e-06
2.199640986e-06
2.21115548e-06
2.201141648e-06
2.201987997e-06
2.206037831e-06
2.200718466e-06
2.205910698e-06
2.20593271e-06
2.206102851e-06
6.03088797e-06
3.370333483e-06
6.124112649e-06
5.825843267e-06
3.895043876e-06
3.843048063e-06
3.925116587e-06
6.656239975e-06
4.127491004e-06
4.427680926e-06
5.477331444e-05
1.862293582e-05
3.012582167e-05
0.0001660726203
4.011778571e-06
3.934972821e-05
5.037164513e-06
1.372873168e-05
0.0002138142796
1.865747819e-05
6.177046108e-06
4.20627759e-05
3.737853031e-05
2.201067444e-06
2.486023622e-06
2.204466251e-06
2.199792064e-06
2.204465172e-06
2.200902009e-06
2.20345097e-06
2.19953018e-06
2.206916205e-06
2.203031753e-06
2.205368474e-06
2.202473441e-06
2.20536439e-06
2.203044488e-06
2.204053784e-06
2.202450218e-06
2.203763387e-06
2.203609525e-06
2.202009719e-06
2.202122714e-06
2.20644572e-06
2.206311272e-06
2.201814944e-06
2.204471799e-06
2.203111307e-06
2.201283949e-06
2.205437275e-06
2.202243984e-06
5.452483739e-06
5.242293444e-06
4.153373439e-06
4.652440007e-06
8.24155465e-06
8.318392862e-06
4.684139699e-06
9.28332896e-06
8.727062013e-06
3.001888873e-06
3.777876266e-06
5.604239057e-06
2.303329882e-06
3.842906753e-06
3.58506566e-06
1.811685082e-05
6.320333087e-06
4.811769556e-05
8.373849449e-06
2.846193454e-05
3.394072221e-05
1.298727552e-05
9.061051212e-06
2.95858238e-05
4.153920533e-06
2.558841511e-05
0.0001783477122
0.0002025628532
3.486816212e-05
0.0001116275939
0.0001275456337
0.0002602184789
0.0002254106677
5.770030677e-05
0.0002614030266
8.2268647e-05
0.000231843758
6.799446265e-05
3.894183304e-05
2.206443304e-06
2.203069548e-06
2.202867321e-06
2.204370396e-06
2.202031658e-06
2.200473361e-06
2.199554708e-06
2.198689804e-06
2.200808381e-06
2.201894045e-06
2.201958387e-06
2.199448637e-06
2.198719242e-06
2.199289263e-06
2.200035526e-06
2.19960741e-06
2.201905634e-06
2.199447193e-06
2.200110146e-06
2.199001265e-06
2.202695414e-06
2.206492398e-06
2.199972956e-06
2.203695025e-06
2.200551734e-06
2.19981682e-06
2.202093624e-06
2.20768519e-06
2.199133624e-06
2.201403096e-06
2.204202678e-06
2.2023532e-06
2.202011786e-06
2.200637889e-06
2.199783658e-06
2.201820033e-06
2.200173113e-06
3.362933787e-06
3.69818033e-06
4.706727375e-06
4.907636511e-06
3.316373038e-06
3.725717452e-06
1.281310653e-05
3.302163395e-06
5.81434604e-06
4.252123467e-06
4.61457524e-06
4.685469291e-06
1.165302242e-05
3.139464251e-06
6.194907635e-06
3.814781917e-06
7.222171308e-06
6.157304851e-06
0.000276603029
3.983480812e-05
5.538077223e-06
2.430472129e-05
7.919779474e-06
1.703772347e-05
3.971621024e-05
4.229761325e-06
5.201466515e-06
2.842973224e-05
2.933575807e-05
3.81549689e-05
3.26995218e-05
1.025709023e-05
2.266118061e-05
3.452552815e-06
4.405538793e-05
2.975924398e-05
1.813989072e-05
2.202632046e-06
2.202215322e-06
2.201863119e-06
2.199784958e-06
2.204930678e-06
2.204428853e-06
2.20218624e-06
2.203730016e-06
2.251977983e-06
2.202373408e-06
2.205881658e-06
2.201711328e-06
2.204460938e-06
2.200142381e-06
2.201292353e-06
2.201576946e-06
2.206774354e-06
2.201645306e-06
2.209214517e-06
2.203855204e-06
2.201182649e-06
2.203635711e-06
2.200200169e-06
2.205737691e-06
5.611804599e-06
4.965848617e-06
4.016855214e-06
5.734024406e-06
5.467241756e-06
5.452810546e-06
6.630919041e-06
4.099436066e-06
3.73965498e-06
6.440550011e-06
5.866878303e-06
5.349780279e-06
5.162551667e-06
5.77528083e-06
5.229020598e-06
6.386827349e-06
3.764868318e-05
4.691024721e-05
2.484962337e-05
1.873402267e-05
1.324436941e-05
1.612850634e-05
8.719063485e-06
4.113258127e-05
3.848602794e-05
2.211613223e-05
7.890717581e-06
6.085226533e-05
2.199061994e-06
2.201712305e-06
2.200529963e-06
2.199790482e-06
2.202379715e-06
2.198721756e-06
2.202262606e-06
2.864213431e-06
2.19971163e-06
2.203301946e-06
2.200328369e-06
2.198956845e-06
2.203431626e-06
2.201529782e-06
2.20454245e-06
2.200087844e-06
2.199988029e-06
2.20298456e-06
2.203535949e-06
2.20153097e-06
2.20063721e-06
2.201828914e-06
2.200543778e-06
2.20271182e-06
2.203530853e-06
2.201911966e-06
2.849586121e-06
6.031160901e-06
2.804110109e-06
4.33694812e-06
3.792385885e-06
3.32446065e-06
3.880515632e-06
2.915203888e-06
4.580700021e-06
3.116726267e-06
4.846210875e-06
4.512774902e-06
3.008302225e-06
1.365938478e-05
6.582382116e-06
3.045868385e-05
1.284914124e-05
2.587702378e-05
9.892205592e-06
7.879018271e-06
6.516905927e-06
3.411398046e-05
4.289931181e-05
1.407728029e-05
1.752616424e-05
1.081151667e-05
7.580164016e-05
0.0002508776221
0.0001505316753
0.0001253565152
5.239369004e-05
1.065450035e-06
1.065455011e-06
1.065456231e-06
5.107297119e-06
1.065472832e-06
1.065499416e-06
1.065455602e-06
1.065439899e-06
1.065479427e-06
1.065421413e-06
1.065448162e-06
1.06541344e-06
1.065421513e-06
1.065412303e-06
1.065430051e-06
1.065471615e-06
5.293167623e-05
1.065490653e-06
1.065411005e-06
5.85811326e-05
0.0002119387134
1.065426861e-06
1.065422543e-06
1.065436563e-06
6.114633757e-05
0.0002109518056
1.065497e-06
1.065501816e-06
1.065459629e-06
1.065497686e-06
1.065431913e-06
1.065492304e-06
1.065461302e-06
1.065430744e-06
1.065462654e-06
1.065417847e-06
1.065444026e-06
1.065467168e-06
1.065481307e-06
1.065429165e-06
1.065428136e-06
1.06541698e-06
1.065412501e-06
1.065487938e-06
1.06543995e-06
1.065435215e-06
1.065438416e-06
1.065469952e-06
1.06548258e-06
1.065416661e-06
1.065451483e-06
1.065442945e-06
1.065490047e-06
1.065415999e-06
1.065451799e-06
1.065420294e-06
1.065460381e-06
1.065471564e-06
1.065433596e-06
1.065414159e-06
1.065440388e-06
1.065446264e-06
1.06543782e-06
1.06545698e-06
1.065428185e-06
1.065435589e-06
1.0654202e-06
1.065486453e-06
1.065426375e-06
1.065476299e-06
1.065449283e-06
1.065442547e-06
1.065478772e-06
1.065420144e-06
1.065416813e-06
1.06541552e-06
1.06548824e-06
1.065415539e-06
1.065456466e-06
1.065414937e-06
1.065445368e-06
1.065465367e-06
1.065477363e-06
1.065471738e-06
1.065479193e-06
1.065420648e-06
1.065472298e-06
1.065452963e-06
1.065455705e-06
1.065422422e-06
1.065435409e-06
1.065447299e-06
1.065412551e-06
1.065439354e-06
1.065468816e-06
1.065431579e-06
1.065427526e-06
1.065428045e-06
1.065436239e-06
1.065470884e-06
1.065449437e-06
1.065441302e-06
1.065447793e-06
1.065427207e-06
1.065453745e-06
1.065434877e-06
1.065464869e-06
1.065438672e-06
1.065461848e-06
1.065451676e-06
1.065487506e-06
1.065439404e-06
1.065466817e-06
1.065505711e-06
1.065436533e-06
1.065483297e-06
1.065411724e-06
1.065474994e-06
1.065433722e-06
1.065488387e-06
1.065450401e-06
1.065444266e-06
1.065433333e-06
1.065441228e-06
3.739248344e-05
1.065428162e-06
1.065409684e-06
1.065480189e-06
1.065432815e-06
1.065464843e-06
1.065450548e-06
1.065417281e-06
1.06544655e-06
1.065413287e-06
1.065447149e-06
3.277410137e-06
3.477999908e-06
1.065443256e-06
1.065423554e-06
1.065446371e-06
1.065424506e-06
0.000230291398
1.065417604e-06
1.065432526e-06
1.065424405e-06
1.065425624e-06
1.065452612e-06
1.065444821e-06
1.065457471e-06
1.065473565e-06
1.065463348e-06
1.065455098e-06
1.065442664e-06
1.065432008e-06
1.065439353e-06
1.065414903e-06
1.065483237e-06
1.06550039e-06
1.065427229e-06
1.065460758e-06
1.065423491e-06
1.065450697e-06
1.06542224e-06
1.065495086e-06
1.065438394e-06
1.065408683e-06
3.790361649e-05
1.065484549e-06
1.065444492e-06
2.616154076e-06
1.065461512e-06
1.065478595e-06
1.065430814e-06
1.065425514e-06
1.065417574e-06
1.065451491e-06
1.436806576e-05
8.650918012e-05
1.065412984e-06
1.065415627e-06
3.938834265e-05
1.065450899e-06
0.0001402896588
1.065411395e-06
1.065426187e-06
1.065468101e-06
1.065490463e-06
1.065434433e-06
1.065459457e-06
1.065493555e-06
1.065445762e-06
1.065491849e-06
1.065432665e-06
1.065444537e-06
1.065450231e-06
1.065429346e-06
1.065494217e-06
1.065430351e-06
1.065457233e-06
1.065428119e-06
1.065430322e-06
1.065494332e-06
1.06548741e-06
1.065431968e-06
1.06543047e-06
1.065418096e-06
1.065440626e-06
1.065437043e-06
1.065452729e-06
1.065471667e-06
1.065438235e-06
1.065467314e-06
1.065420822e-06
1.065422078e-06
1.065455483e-06
1.065489049e-06
1.065453512e-06
1.065479522e-06
1.065454295e-06
1.065462768e-06
1.065425713e-06
1.065423097e-06
1.065460346e-06
1.065410935e-06
1.065452318e-06
1.065438839e-06
1.065442371e-06
1.065448579e-06
1.065470338e-06
1.065491804e-06
1.065415114e-06
1.06545332e-06
1.065414575e-06
1.065487107e-06
1.065446471e-06
1.065446366e-06
1.065418736e-06
1.06545611e-06
1.065442759e-06
1.065413408e-06
4.649094342e-05
1.06543691e-06
1.06548303e-06
1.065484129e-06
1.065481734e-06
1.065439914e-06
1.065477712e-06
1.065460606e-06
1.065494448e-06
1.065412742e-06
1.065430582e-06
1.065443554e-06
1.065446569e-06
1.065470592e-06
5.755716838e-06
1.065422817e-06
1.065486598e-06
1.065410872e-06
1.065445501e-06
1.065476969e-06
1.065417263e-06
1.065425692e-06
1.065424744e-06
1.065427876e-06
1.065480334e-06
1.065455395e-06
1.065441628e-06
3.453948481e-06
5.032497013e-05
1.065485355e-06
1.065419919e-06
1.065418535e-06
1.06549817e-06
1.06547268e-06
1.065432186e-06
1.065416521e-06
1.065435175e-06
1.065437669e-06
1.065434529e-06
1.065472943e-06
1.065468016e-06
1.065450535e-06
1.065468644e-06
1.065469748e-06
1.065464228e-06
1.065445259e-06
1.065425149e-06
1.065444771e-06
1.065422984e-06
1.06542356e-06
1.065431731e-06
1.06547858e-06
1.065500939e-06
1.065444996e-06
1.065494827e-06
1.065467135e-06
1.06548955e-06
1.065452266e-06
1.065432141e-06
1.065473698e-06
1.065482923e-06
1.065447543e-06
1.06541098e-06
1.065475082e-06
1.0654588e-06
1.065448694e-06
1.065415816e-06
1.065408119e-06
1.065428967e-06
2.551244962e-05
1.065418748e-06
1.06542587e-06
1.065482161e-06
1.06545606e-06
1.065454385e-06
1.065429543e-06
1.065457474e-06
1.065452903e-06
1.065490083e-06
1.065470307e-06
1.065473491e-06
1.065461608e-06
1.065496499e-06
1.065507841e-06
1.065474239e-06
1.065474397e-06
1.065456911e-06
1.065444867e-06
1.065468791e-06
1.06541615e-06
1.065420495e-06
1.06549414e-06
1.065480409e-06
1.065470914e-06
1.065473392e-06
1.065456147e-06
1.065427829e-06
1.065411637e-06
1.065434231e-06
1.065420577e-06
1.065431201e-06