/*--------------------------------*- C++ -*----------------------------------*\
  =========                 |
  \\      /  F ield         | OpenFOAM: The Open Source CFD Toolbox
   \\    /   O peration     | Website:  https://openfoam.org
    \\  /    A nd           | Version:  7
     \\/     M anipulation  |
\*---------------------------------------------------------------------------*/
FoamFile
{
    version     2.0;
    format      ascii;
    class       scalarField;
    location    "2/lagrangian/coalCloud1";
    object      mp2;
}
// * * * * * * * * * * * * * * * * * * * * * * * * * * * * * * * * * * * * * //


2000
(
2.952263026e-07
2.952263026e-07
2.952263026e-07
2.952263026e-07
2.952263026e-07
2.952263026e-07
2.952263026e-07
2.952263026e-07
2.952263026e-07
2.952263026e-07
2.952263026e-07
2.952263026e-07
2.952263026e-07
2.952263026e-07
2.952263026e-07
2.952263026e-07
2.952263026e-07
2.952263026e-07
2.952263026e-07
2.952263026e-07
2.952263026e-07
2.952263026e-07
2.952263026e-07
2.952263026e-07
2.952263026e-07
2.952263026e-07
2.952263026e-07
2.952263026e-07
2.952263026e-07
2.952263026e-07
2.952263026e-07
2.952263026e-07
2.952263026e-07
2.952263026e-07
2.952263026e-07
2.952263026e-07
2.952263026e-07
2.952263026e-07
2.952263026e-07
2.952263026e-07
2.952263026e-07
2.952263026e-07
2.952263026e-07
2.952263026e-07
2.952263026e-07
2.952263026e-07
2.952263026e-07
2.952263026e-07
2.952263026e-07
2.952263026e-07
2.952263026e-07
2.952263026e-07
2.952263026e-07
2.952263026e-07
2.952263026e-07
2.952263026e-07
2.952263026e-07
2.952263026e-07
2.952263026e-07
2.952263026e-07
2.952263026e-07
2.952263026e-07
2.952263026e-07
2.952263026e-07
2.952263026e-07
2.952263026e-07
2.952263026e-07
2.952263026e-07
2.952263026e-07
2.952263026e-07
2.952263026e-07
2.952263026e-07
2.952263026e-07
2.952263026e-07
2.952263026e-07
2.952263026e-07
2.952263026e-07
2.952263026e-07
2.952263026e-07
2.952263026e-07
2.952263026e-07
2.952263026e-07
2.952263026e-07
2.952263026e-07
2.952263026e-07
2.952263026e-07
2.952263026e-07
2.952263026e-07
2.952263026e-07
2.952263026e-07
2.952263026e-07
2.952263026e-07
2.952263026e-07
2.952263026e-07
2.952263026e-07
2.952263026e-07
2.952263026e-07
2.952263026e-07
2.952263026e-07
2.952263026e-07
2.952263026e-07
2.952263026e-07
2.952263026e-07
2.952263026e-07
2.952263026e-07
2.952263026e-07
2.952263026e-07
2.952263026e-07
2.952263026e-07
2.952263026e-07
2.952263026e-07
2.952263026e-07
2.952263026e-07
2.952263026e-07
2.952263026e-07
2.952263026e-07
2.952263026e-07
2.952263026e-07
2.952263026e-07
2.952263026e-07
2.952263026e-07
2.952263026e-07
2.952263026e-07
2.952263026e-07
2.952263026e-07
2.952263026e-07
2.952263026e-07
2.952263026e-07
2.952263026e-07
2.952263026e-07
2.952263026e-07
2.952263026e-07
2.952263026e-07
2.952263026e-07
2.952263026e-07
2.952263026e-07
2.952263026e-07
2.952263026e-07
2.952263026e-07
2.952263026e-07
2.952263026e-07
2.952263026e-07
2.952263026e-07
2.952263026e-07
2.952263026e-07
2.952263026e-07
2.952263026e-07
2.952263026e-07
2.952263026e-07
2.952263026e-07
2.952263026e-07
2.952263026e-07
2.952263026e-07
2.952263026e-07
2.952263026e-07
2.952263026e-07
2.952263026e-07
2.952263026e-07
2.952263026e-07
2.952263026e-07
2.952263026e-07
2.952263026e-07
2.952263026e-07
2.952263026e-07
2.952263026e-07
2.952263026e-07
2.952263026e-07
2.952263026e-07
2.952263026e-07
2.952263026e-07
2.952263026e-07
2.952263026e-07
2.952263026e-07
2.952263026e-07
2.952263026e-07
2.952263026e-07
2.952263026e-07
2.952263026e-07
2.952263026e-07
2.952263026e-07
2.952263026e-07
2.952263026e-07
2.952263026e-07
2.952263026e-07
2.952263026e-07
2.952263026e-07
2.952263026e-07
2.952263026e-07
2.952263026e-07
2.952263026e-07
2.952263026e-07
2.952263026e-07
2.952263026e-07
2.952263026e-07
2.952263026e-07
2.952263026e-07
2.952263026e-07
2.952263026e-07
2.952263026e-07
2.952263026e-07
2.952263026e-07
2.952263026e-07
2.952263026e-07
2.952263026e-07
2.952263026e-07
2.952263026e-07
2.952263026e-07
2.952263026e-07
2.952263026e-07
2.952263026e-07
2.952263026e-07
2.952263026e-07
2.952263026e-07
2.952263026e-07
2.952263026e-07
2.952263026e-07
2.952263026e-07
2.952263026e-07
2.952263026e-07
2.952263026e-07
2.952263026e-07
2.952263026e-07
2.952263026e-07
2.952263026e-07
2.952263026e-07
2.952263026e-07
2.952263026e-07
2.952263026e-07
2.952263026e-07
2.952263026e-07
2.952263026e-07
2.952263026e-07
2.952263026e-07
2.952263026e-07
2.952263026e-07
2.952263026e-07
2.952263026e-07
2.952263026e-07
2.952263026e-07
2.952263026e-07
2.952263026e-07
2.952263026e-07
2.952263026e-07
2.952263026e-07
2.952263026e-07
2.952263026e-07
2.952263026e-07
2.952263026e-07
2.952263026e-07
2.952263026e-07
2.952263026e-07
2.952263026e-07
2.952263026e-07
2.952263026e-07
2.952263026e-07
2.952263026e-07
2.952263026e-07
2.952263026e-07
2.952263026e-07
2.952263026e-07
2.952263026e-07
2.952263026e-07
2.952263026e-07
2.952263026e-07
2.952263026e-07
2.952263026e-07
2.952263026e-07
2.952263026e-07
2.952263026e-07
2.952263026e-07
2.952263026e-07
2.952263026e-07
2.952263026e-07
2.952263026e-07
2.952263026e-07
2.952263026e-07
2.952263026e-07
2.952263026e-07
2.952263026e-07
2.952263026e-07
2.952263026e-07
2.952263026e-07
2.952263026e-07
2.952263026e-07
2.952263026e-07
2.952263026e-07
2.952263026e-07
2.952263026e-07
2.952263026e-07
2.952263026e-07
2.952263026e-07
2.952263026e-07
2.952263026e-07
2.952263026e-07
2.952263026e-07
2.952263026e-07
2.952263026e-07
2.952263026e-07
2.952263026e-07
2.952263026e-07
2.952263026e-07
2.952263026e-07
2.952263026e-07
2.952263026e-07
2.952263026e-07
2.952263026e-07
2.952263026e-07
2.952263026e-07
2.952263026e-07
2.952263026e-07
2.952263026e-07
2.952263026e-07
2.952263026e-07
2.952263026e-07
2.952263026e-07
2.952263026e-07
2.952263026e-07
2.952263026e-07
2.952263026e-07
2.952263026e-07
2.952263026e-07
2.952263026e-07
2.952263026e-07
2.952263026e-07
2.952263026e-07
2.952263026e-07
2.952263026e-07
2.952263026e-07
2.952263026e-07
2.952263026e-07
2.952263026e-07
2.952263026e-07
2.952263026e-07
2.952263026e-07
2.952263026e-07
2.952263026e-07
2.952263026e-07
2.952263026e-07
2.952263026e-07
2.952263026e-07
2.952263026e-07
2.952263026e-07
2.952263026e-07
2.952263026e-07
2.952263026e-07
2.952263026e-07
2.952263026e-07
2.952263026e-07
2.952263026e-07
2.952263026e-07
2.952263026e-07
2.952263026e-07
2.952263026e-07
2.952263026e-07
2.952263026e-07
2.952263026e-07
2.952263026e-07
2.952263026e-07
2.952263026e-07
2.952263026e-07
2.952263026e-07
2.952263026e-07
2.952263026e-07
2.952263026e-07
2.952263026e-07
2.952263026e-07
2.952263026e-07
2.952263026e-07
2.952263026e-07
2.952263026e-07
2.952263026e-07
2.952263026e-07
2.952263026e-07
2.952263026e-07
2.952263026e-07
2.952263026e-07
2.952263026e-07
2.952263026e-07
2.952263026e-07
2.952263026e-07
2.952263026e-07
2.952263026e-07
2.952263026e-07
2.952263026e-07
2.952263026e-07
2.952263026e-07
2.952263026e-07
2.952263026e-07
2.952263026e-07
2.952263026e-07
2.952263026e-07
2.952263026e-07
2.952263026e-07
2.952263026e-07
2.952263026e-07
2.952263026e-07
2.952263026e-07
2.952263026e-07
2.952263026e-07
2.952263026e-07
2.952263026e-07
2.952263026e-07
2.952263026e-07
2.952263026e-07
2.952263026e-07
2.952263026e-07
2.952263026e-07
2.952263026e-07
2.952263026e-07
2.952263026e-07
2.952263026e-07
2.952263026e-07
2.952263026e-07
2.952263026e-07
2.952263026e-07
2.952263026e-07
2.952263026e-07
2.952263026e-07
2.952263026e-07
2.952263026e-07
2.952263026e-07
2.952263026e-07
2.952263026e-07
2.952263026e-07
2.952263026e-07
2.952263026e-07
2.952263026e-07
2.952263026e-07
2.952263026e-07
2.952263026e-07
2.952263026e-07
2.952263026e-07
2.952263026e-07
2.952263026e-07
2.952263026e-07
2.952263026e-07
2.952263026e-07
2.952263026e-07
2.952263026e-07
2.952263026e-07
2.952263026e-07
2.952263026e-07
2.952263026e-07
2.952263026e-07
2.952263026e-07
2.952263026e-07
2.952263026e-07
2.952263026e-07
2.952263026e-07
2.952263026e-07
2.952263026e-07
2.952263026e-07
2.952263026e-07
2.952263026e-07
2.952263026e-07
2.952263026e-07
2.952263026e-07
2.952263026e-07
2.952263026e-07
2.952263026e-07
2.952263026e-07
2.952263026e-07
2.952263026e-07
2.952263026e-07
2.952263026e-07
2.952263026e-07
2.952263026e-07
2.952263026e-07
2.952263026e-07
2.952263026e-07
2.952263026e-07
2.952263026e-07
2.952263026e-07
2.952263026e-07
2.952263026e-07
2.952263026e-07
2.952263026e-07
2.952263026e-07
2.952263026e-07
2.952263026e-07
2.952263026e-07
2.952263026e-07
2.952263026e-07
2.952263026e-07
2.952263026e-07
2.952263026e-07
2.952263026e-07
2.952263026e-07
2.952263026e-07
2.952263026e-07
2.952263026e-07
2.952263026e-07
2.952263026e-07
2.952263026e-07
2.952263026e-07
2.952263026e-07
2.952263026e-07
2.952263026e-07
2.952263026e-07
2.952263026e-07
2.952263026e-07
2.952263026e-07
2.952263026e-07
2.952263026e-07
2.952263026e-07
2.952263026e-07
2.952263026e-07
2.952263026e-07
2.952263026e-07
2.952263026e-07
2.952263026e-07
2.952263026e-07
2.952263026e-07
2.952263026e-07
2.952263026e-07
2.952263026e-07
2.952263026e-07
2.952263026e-07
2.952263026e-07
2.952263026e-07
2.952263026e-07
2.952263026e-07
2.952263026e-07
2.952263026e-07
2.952263026e-07
2.952263026e-07
2.952263026e-07
2.952263026e-07
2.952263026e-07
2.952263026e-07
2.952263026e-07
2.952263026e-07
2.952263026e-07
2.952263026e-07
2.952263026e-07
2.952263026e-07
2.952263026e-07
2.952263026e-07
2.952263026e-07
2.952263026e-07
2.952263026e-07
2.952263026e-07
2.952263026e-07
2.952263026e-07
2.952263026e-07
2.952263026e-07
2.952263026e-07
2.952263026e-07
2.952263026e-07
2.952263026e-07
2.952263026e-07
2.952263026e-07
2.952263026e-07
2.952263026e-07
2.952263026e-07
2.952263026e-07
2.952263026e-07
2.952263026e-07
2.952263026e-07
2.952263026e-07
2.952263026e-07
2.952263026e-07
2.952263026e-07
2.952263026e-07
2.952263026e-07
2.952263026e-07
2.952263026e-07
2.952263026e-07
2.952263026e-07
2.952263026e-07
2.952263026e-07
2.952263026e-07
2.952263026e-07
2.952263026e-07
2.952263026e-07
2.952263026e-07
2.952263026e-07
2.952263026e-07
2.952263026e-07
2.952263026e-07
2.952263026e-07
2.952263026e-07
2.952263026e-07
2.952263026e-07
2.952263026e-07
2.952263026e-07
2.952263026e-07
2.952263026e-07
2.952263026e-07
2.952263026e-07
2.952263026e-07
2.952263026e-07
2.952263026e-07
2.952263026e-07
2.952263026e-07
2.952263026e-07
2.952263026e-07
2.952263026e-07
2.952263026e-07
2.952263026e-07
2.952263026e-07
2.952263026e-07
2.952263026e-07
2.952263026e-07
2.952263026e-07
2.952263026e-07
2.952263026e-07
2.952263026e-07
2.952263026e-07
2.952263026e-07
2.952263026e-07
2.952263026e-07
2.952263026e-07
2.952263026e-07
2.952263026e-07
2.952263026e-07
2.952263026e-07
2.952263026e-07
2.952263026e-07
2.952263026e-07
2.952263026e-07
2.952263026e-07
2.952263026e-07
2.952263026e-07
2.952263026e-07
2.952263026e-07
2.952263026e-07
2.952263026e-07
2.952263026e-07
2.952263026e-07
2.952263026e-07
2.952263026e-07
2.952263026e-07
2.952263026e-07
2.952263026e-07
2.952263026e-07
2.952263026e-07
2.952263026e-07
2.952263026e-07
2.952263026e-07
2.952263026e-07
2.952263026e-07
2.952263026e-07
2.952263026e-07
2.952263026e-07
2.952263026e-07
2.952263026e-07
2.952263026e-07
2.952263026e-07
2.952263026e-07
2.952263026e-07
2.952263026e-07
2.952263026e-07
2.952263026e-07
2.952263026e-07
2.952263026e-07
2.952263026e-07
2.952263026e-07
2.952263026e-07
2.952263026e-07
2.952263026e-07
2.952263026e-07
2.952263026e-07
2.952263026e-07
2.952263026e-07
2.952263026e-07
2.952263026e-07
2.952263026e-07
2.952263026e-07
2.952263026e-07
2.952263026e-07
2.952263026e-07
2.952263026e-07
2.952263026e-07
2.952263026e-07
2.952263026e-07
2.952263026e-07
2.952263026e-07
2.952263026e-07
2.952263026e-07
2.952263026e-07
2.952263026e-07
2.952263026e-07
2.952263026e-07
2.952263026e-07
2.952263026e-07
2.952263026e-07
2.952263026e-07
2.952263026e-07
2.952263026e-07
2.952263026e-07
2.952263026e-07
2.952263026e-07
2.952263026e-07
2.952263026e-07
2.952263026e-07
2.952263026e-07
2.952263026e-07
2.952263026e-07
2.952263026e-07
2.952263026e-07
2.952263026e-07
2.952263026e-07
2.952263026e-07
2.952263026e-07
2.952263026e-07
2.952263026e-07
2.952263026e-07
2.952263026e-07
2.952263026e-07
2.952263026e-07
2.952263026e-07
2.952263026e-07
2.952263026e-07
2.952263026e-07
2.952263026e-07
2.952263026e-07
2.952263026e-07
2.952263026e-07
2.952263026e-07
2.952263026e-07
2.952263026e-07
2.952263026e-07
2.952263026e-07
2.952263026e-07
2.952263026e-07
2.952263026e-07
2.952263026e-07
2.952263026e-07
2.952263026e-07
2.952263026e-07
2.952263026e-07
2.952263026e-07
2.952263026e-07
2.952263026e-07
2.952263026e-07
2.952263026e-07
2.952263026e-07
2.952263026e-07
2.952263026e-07
2.952263026e-07
2.952263026e-07
2.952263026e-07
2.952263026e-07
2.952263026e-07
2.952263026e-07
2.952263026e-07
2.952263026e-07
2.952263026e-07
2.952263026e-07
2.952263026e-07
2.952263026e-07
2.952263026e-07
2.952263026e-07
2.952263026e-07
2.952263026e-07
2.952263026e-07
2.952263026e-07
2.952263026e-07
2.952263026e-07
2.952263026e-07
2.952263026e-07
2.952263026e-07
2.952263026e-07
2.952263026e-07
2.952263026e-07
2.952263026e-07
2.952263026e-07
2.952263026e-07
2.952263026e-07
2.952263026e-07
2.952263026e-07
2.952263026e-07
2.952263026e-07
2.952263026e-07
2.952263026e-07
2.952263026e-07
2.952263026e-07
2.952263026e-07
2.952263026e-07
2.952263026e-07
2.952263026e-07
2.952263026e-07
2.952263026e-07
2.952263026e-07
2.952263026e-07
2.952263026e-07
2.952263026e-07
2.952263026e-07
2.952263026e-07
2.952263026e-07
2.952263026e-07
2.952263026e-07
2.952263026e-07
2.952263026e-07
2.952263026e-07
2.952263026e-07
2.952263026e-07
2.952263026e-07
2.952263026e-07
2.952263026e-07
2.952263026e-07
2.952263026e-07
2.952263026e-07
2.952263026e-07
2.952263026e-07
2.952263026e-07
2.952263026e-07
2.952263026e-07
2.952263026e-07
2.952263026e-07
2.952263026e-07
2.952263026e-07
2.952263026e-07
2.952263026e-07
2.952263026e-07
2.952263026e-07
2.952263026e-07
2.952263026e-07
2.952263026e-07
2.952263026e-07
2.952263026e-07
2.952263026e-07
2.952263026e-07
2.952263026e-07
2.952263026e-07
2.952263026e-07
2.952263026e-07
2.95226303e-07
2.952263029e-07
2.952263501e-07
2.952263032e-07
2.952263144e-07
2.952263026e-07
2.952263041e-07
2.952263028e-07
2.952263026e-07
2.952263031e-07
2.952263028e-07
2.952264138e-07
2.952263029e-07
2.952263026e-07
2.952263028e-07
2.952263026e-07
2.952263026e-07
2.952263026e-07
2.952263026e-07
2.952263026e-07
2.952263026e-07
2.952263026e-07
2.952263026e-07
2.952263026e-07
2.952263026e-07
2.952263026e-07
2.952263026e-07
2.952263026e-07
2.952263026e-07
2.952263026e-07
2.952263026e-07
2.952263026e-07
2.952263026e-07
2.952263026e-07
2.952263026e-07
2.952263026e-07
2.952263026e-07
2.952263026e-07
2.952263026e-07
2.952263026e-07
2.952263026e-07
2.952263026e-07
2.952263026e-07
2.952263026e-07
2.952263026e-07
2.952263026e-07
2.952263026e-07
2.952263026e-07
2.952263026e-07
2.952263026e-07
2.952263026e-07
2.952263026e-07
2.952263026e-07
2.952263026e-07
2.952263026e-07
2.952263026e-07
2.952263027e-07
2.952263034e-07
2.952263453e-07
2.952263057e-07
2.952263026e-07
2.952263102e-07
2.952263819e-07
2.952265116e-07
2.952263071e-07
4.842991025e-05
2.952263044e-07
2.952263027e-07
2.952263026e-07
2.952263026e-07
2.952263026e-07
2.952263026e-07
2.952263026e-07
2.952263026e-07
2.952263026e-07
2.952263026e-07
2.952263026e-07
2.952263026e-07
2.952263026e-07
2.952263026e-07
2.952263026e-07
2.952263026e-07
2.952263026e-07
2.952263026e-07
2.952263026e-07
2.952263026e-07
2.952263026e-07
2.952263026e-07
2.952263026e-07
2.952263026e-07
2.952263026e-07
2.952263026e-07
2.952263026e-07
2.952263026e-07
2.952263026e-07
2.952263026e-07
2.952263026e-07
2.952263026e-07
2.952263026e-07
2.952263026e-07
2.952263026e-07
2.952263026e-07
2.952263026e-07
2.952263026e-07
2.952263027e-07
2.95226312e-07
2.952263129e-07
2.952263054e-07
2.952263047e-07
2.952263026e-07
2.952263026e-07
2.952263026e-07
2.952263037e-07
2.952263026e-07
2.952263026e-07
2.952263026e-07
2.952263033e-07
2.952263026e-07
2.915127956e-05
5.460170211e-05
2.963333482e-05
4.459887855e-05
3.335202609e-05
5.509704297e-05
2.952264941e-07
4.652866054e-05
5.119245156e-07
4.056694426e-05
2.952263026e-07
2.952263026e-07
2.952263026e-07
2.952263026e-07
2.952263026e-07
2.952263026e-07
2.952263026e-07
2.952263026e-07
2.952263026e-07
2.952263026e-07
2.952263026e-07
2.952263026e-07
2.952263026e-07
2.952263026e-07
2.952263026e-07
2.952263026e-07
2.952263026e-07
2.952263026e-07
2.952263026e-07
2.952263026e-07
2.952263026e-07
2.952263026e-07
2.952263026e-07
2.952263026e-07
2.952263026e-07
2.952263026e-07
2.952263026e-07
2.952263026e-07
2.952263026e-07
2.952263026e-07
2.952263026e-07
2.952263026e-07
2.952263026e-07
2.952263026e-07
2.952263026e-07
2.952263026e-07
2.952263026e-07
2.952263026e-07
2.952263026e-07
2.952263026e-07
2.952263026e-07
2.952263026e-07
2.952263026e-07
2.952263026e-07
2.952263026e-07
2.952263026e-07
2.952263026e-07
2.952263026e-07
2.952263026e-07
2.952263027e-07
2.952263026e-07
2.952263026e-07
2.952263026e-07
2.952263026e-07
2.952263026e-07
2.952263026e-07
2.952263026e-07
2.952263026e-07
2.952263026e-07
2.952263026e-07
2.952263026e-07
2.952263606e-07
2.952263042e-07
2.952263613e-07
2.952263042e-07
2.952263026e-07
2.952263027e-07
2.952263096e-07
2.952263034e-07
2.952263059e-07
2.952263026e-07
2.952263026e-07
2.952263087e-07
2.952263066e-07
2.952263092e-07
2.952263123e-07
2.952263043e-07
2.95226354e-07
2.952263026e-07
2.952263026e-07
2.952263026e-07
2.952263026e-07
2.952263026e-07
2.952263026e-07
2.952263026e-07
2.952263026e-07
2.952263026e-07
2.952263026e-07
2.952263026e-07
2.952263026e-07
2.952263026e-07
2.952263026e-07
2.952263026e-07
2.952263026e-07
2.952263026e-07
2.952263026e-07
2.952263026e-07
2.952263026e-07
2.952263026e-07
2.952263026e-07
2.952263026e-07
2.952263026e-07
2.952263026e-07
2.952263026e-07
2.952263026e-07
2.952263026e-07
2.952263026e-07
2.952263026e-07
2.952263026e-07
2.952263026e-07
2.952263026e-07
2.952263026e-07
2.952263026e-07
2.952263026e-07
2.952263056e-07
2.952263033e-07
2.952263038e-07
2.952263042e-07
2.952263027e-07
2.952263052e-07
2.952263027e-07
2.952263029e-07
2.952263026e-07
2.952263028e-07
2.952263026e-07
2.952263026e-07
5.478601133e-05
2.952263029e-07
2.952263026e-07
2.952263026e-07
2.952263026e-07
2.952263026e-07
2.952263026e-07
2.952263026e-07
2.952263026e-07
2.952263026e-07
2.952263026e-07
2.952263026e-07
2.952263026e-07
2.952263026e-07
2.952263026e-07
2.952263026e-07
2.952263026e-07
2.952263026e-07
2.952263026e-07
2.952263026e-07
2.952263026e-07
2.952263026e-07
2.952263026e-07
2.952263026e-07
2.952263026e-07
2.952263026e-07
2.952263026e-07
2.952263026e-07
2.952263026e-07
2.952263026e-07
2.952263026e-07
2.952263026e-07
2.952263026e-07
2.952263026e-07
2.952263026e-07
2.952263026e-07
2.952263026e-07
2.952263026e-07
2.952263026e-07
2.952263204e-07
2.95226304e-07
2.952263035e-07
2.952263027e-07
2.952263032e-07
2.952263031e-07
2.952263026e-07
2.952263026e-07
2.952263028e-07
2.95226354e-07
2.952263037e-07
2.952263086e-07
2.952263026e-07
2.952263146e-07
5.813974154e-05
5.097511724e-05
2.952263026e-07
2.952263026e-07
2.952263026e-07
2.952263026e-07
2.952263026e-07
2.952263026e-07
2.952263026e-07
2.952263026e-07
2.952263026e-07
2.952263026e-07
2.952263026e-07
2.952263026e-07
2.952263026e-07
2.952263026e-07
2.952263026e-07
2.952263026e-07
2.952263026e-07
2.952263026e-07
2.952263026e-07
2.952263026e-07
2.952263026e-07
2.952263026e-07
2.952263026e-07
2.952263026e-07
2.952263026e-07
2.952263026e-07
2.952263026e-07
2.952263026e-07
2.952263026e-07
2.952263026e-07
2.952263026e-07
2.952263026e-07
2.952263026e-07
2.952263026e-07
2.952263026e-07
2.952263026e-07
2.952263026e-07
2.952263026e-07
2.952263026e-07
2.952263026e-07
2.952263026e-07
2.952263026e-07
2.95226303e-07
2.952263026e-07
2.952263026e-07
2.952263026e-07
2.952263026e-07
2.952263026e-07
2.952263026e-07
2.952263026e-07
2.952263026e-07
2.952263026e-07
2.952263026e-07
2.952263028e-07
2.952263127e-07
2.952263026e-07
2.952263026e-07
4.690080765e-05
2.952263059e-07
2.952263064e-07
2.952263026e-07
2.952263094e-07
2.952263029e-07
2.952263027e-07
2.952263434e-07
2.952263026e-07
2.952263057e-07
2.952263035e-07
2.952263026e-07
2.952263026e-07
2.952263026e-07
2.952263026e-07
2.952263026e-07
2.952263026e-07
2.952263026e-07
2.952263026e-07
2.952263026e-07
2.952263026e-07
2.952263026e-07
2.952263026e-07
2.952263026e-07
2.952263026e-07
2.952263026e-07
2.952263026e-07
2.952263026e-07
2.952263026e-07
2.952263026e-07
2.952263026e-07
2.952263026e-07
2.952263026e-07
2.952263026e-07
2.952263026e-07
2.952263026e-07
2.952263026e-07
2.952263026e-07
2.952263026e-07
2.952263026e-07
2.952263026e-07
2.952263026e-07
2.952263026e-07
2.952263026e-07
2.952263026e-07
2.952263026e-07
2.952263026e-07
2.952263026e-07
2.952263026e-07
2.952263026e-07
4.425036835e-05
2.952263031e-07
2.952263053e-07
2.68330077e-05
2.952263026e-07
2.952263307e-07
2.952263026e-07
2.952263027e-07
1.711900199e-05
2.95226303e-07
2.952263026e-07
2.952263842e-07
2.952263469e-07
2.952263026e-07
2.952263026e-07
2.952263026e-07
2.952263026e-07
2.952263026e-07
2.952263026e-07
2.952263026e-07
2.952263026e-07
2.952263026e-07
2.952263026e-07
2.952263026e-07
2.952263026e-07
2.952263026e-07
2.952263026e-07
2.952263026e-07
2.952263026e-07
2.952263026e-07
2.952263026e-07
2.952263026e-07
2.952263026e-07
2.952263026e-07
2.952263026e-07
2.952263026e-07
2.952263026e-07
2.952263026e-07
2.952263026e-07
2.952263026e-07
2.952263026e-07
2.952263026e-07
2.952263026e-07
2.952263026e-07
2.952263026e-07
2.952263026e-07
2.952263026e-07
2.952263026e-07
2.952263026e-07
2.952263026e-07
2.952263026e-07
2.952263026e-07
2.952263026e-07
2.952263026e-07
2.952263026e-07
2.952263026e-07
2.952263029e-07
2.952263026e-07
2.952264131e-07
2.952263026e-07
2.952263045e-07
2.952263072e-07
2.952263027e-07
2.952263026e-07
2.952263048e-07
2.952263026e-07
2.952263038e-07
2.285159301e-05
2.997322685e-07
5.387759879e-05
3.742511042e-05
3.361138569e-05
3.433902163e-06
1.1649824e-05
2.952269472e-07
2.997742331e-06
3.902414405e-05
1.108578244e-05
2.952348075e-07
5.350660541e-05
2.952263026e-07
2.952263026e-07
2.952263026e-07
2.952263026e-07
2.952263026e-07
2.952263026e-07
2.952263026e-07
2.952263026e-07
2.952263026e-07
2.952263026e-07
2.952263026e-07
2.952263026e-07
2.952263026e-07
2.952263026e-07
2.952263026e-07
2.952263026e-07
2.952263026e-07
2.952263026e-07
2.952263026e-07
2.952263026e-07
2.952263026e-07
2.952263026e-07
2.952263026e-07
2.952263026e-07
2.952263026e-07
2.952263026e-07
2.952263026e-07
2.952263026e-07
2.952263026e-07
2.952263026e-07
2.952263026e-07
2.952263026e-07
2.952263026e-07
2.952263026e-07
2.952263026e-07
2.952263026e-07
2.952263026e-07
2.952263026e-07
2.952263026e-07
2.952263026e-07
2.952263026e-07
2.952263026e-07
2.952263026e-07
2.952263027e-07
2.952263026e-07
2.952263026e-07
2.952263026e-07
2.952263026e-07
2.952263026e-07
2.952263027e-07
2.952263026e-07
2.952263026e-07
2.952263026e-07
2.952263026e-07
2.952263026e-07
3.188585775e-07
2.952263422e-07
2.952263026e-07
2.952263034e-07
2.952263026e-07
2.952263028e-07
2.952263131e-07
2.952263026e-07
2.952263026e-07
2.952263047e-07
2.952263048e-07
2.952263323e-07
2.952263089e-07
2.952263027e-07
2.952263034e-07
2.952263026e-07
2.952264402e-07
2.952263053e-07
2.952263029e-07
2.952263026e-07
2.952263026e-07
2.952263026e-07
2.952263026e-07
2.952263026e-07
2.952263026e-07
2.952263026e-07
2.952263026e-07
2.952263026e-07
2.952263026e-07
2.952263026e-07
2.952263026e-07
2.952263026e-07
2.952263026e-07
2.952263026e-07
2.952263026e-07
2.952263026e-07
2.952263026e-07
2.952263026e-07
2.952263026e-07
2.952263026e-07
2.952263026e-07
2.952263026e-07
2.952263026e-07
2.952263026e-07
2.952263026e-07
2.952263026e-07
2.952263026e-07
2.952263026e-07
2.952263026e-07
2.952263026e-07
2.952263026e-07
2.952263026e-07
2.952263026e-07
2.952263026e-07
2.952263026e-07
2.952263026e-07
2.952263026e-07
2.952263026e-07
2.952263026e-07
2.952263114e-07
2.95226464e-07
2.952263037e-07
2.95226303e-07
2.952263027e-07
2.952263028e-07
2.952263026e-07
2.952263762e-07
2.952263116e-07
2.952263033e-07
2.952263026e-07
4.442641485e-05
2.952263026e-07
2.952263026e-07
2.952263026e-07
2.952263026e-07
2.952263026e-07
2.952263026e-07
2.952263026e-07
2.952263026e-07
2.952263026e-07
2.952263026e-07
2.952263026e-07
2.952263026e-07
2.952263026e-07
2.952263026e-07
2.952263026e-07
2.952263026e-07
2.952263026e-07
2.952263026e-07
2.952263026e-07
2.952263026e-07
2.952263026e-07
2.952263026e-07
2.952263026e-07
2.952263026e-07
2.952263026e-07
2.952263026e-07
2.952263026e-07
2.952263026e-07
2.952263026e-07
2.952263026e-07
2.952263026e-07
2.952263026e-07
2.952263026e-07
2.952263026e-07
2.952263026e-07
2.952263026e-07
2.952263026e-07
2.952263026e-07
2.952263026e-07
2.952263027e-07
2.952263026e-07
2.952263064e-07
2.952263027e-07
2.952263038e-07
2.952263026e-07
2.952263026e-07
2.952263026e-07
2.952263087e-07
2.95226381e-07
2.952263027e-07
2.952263029e-07
5.322499068e-05
4.438331583e-05
6.324477224e-06
3.038426938e-06
3.419163444e-05
2.952310863e-07
5.08473405e-05
5.31232109e-05
4.747295281e-05
5.743868482e-05
4.659234342e-05
4.71237406e-05
4.803711367e-05
4.73709585e-05
4.752587925e-05
4.832315909e-05
4.789056456e-05
4.722074947e-05
5.408774207e-05
5.227347143e-05
4.668349538e-05
4.679203639e-05
5.062525114e-05
4.86858985e-05
5.406871325e-05
4.832738904e-05
1.486568198e-05
5.561489045e-05
4.640789313e-05
4.726389395e-05
4.533045081e-05
1.41722115e-05
4.74527616e-05
4.772649812e-05
4.784049598e-05
4.657658287e-05
4.643932194e-05
4.652371979e-05
4.705445175e-05
4.627597043e-05
4.790174166e-05
4.644560875e-05
4.683096565e-05
4.571154315e-05
4.790755233e-05
4.750218118e-05
4.702209267e-05
4.684822362e-05
4.619163578e-05
4.729366855e-05
4.679035196e-05
4.76328741e-05
4.761174592e-05
4.783957801e-05
4.720322944e-05
4.662162003e-05
4.665797924e-05
4.783806258e-05
4.711139654e-05
5.230816154e-05
4.903042309e-05
5.39206077e-05
4.808401333e-05
4.792618217e-05
4.799390084e-05
5.324465143e-05
4.821567224e-05
5.333885932e-05
4.810648208e-05
4.767590532e-05
5.298784676e-05
4.905346427e-05
4.771000973e-05
4.707857066e-05
4.665537803e-05
4.799143532e-05
4.881112944e-05
4.841366251e-05
4.829825521e-05
4.795182867e-05
4.765068856e-05
4.794762442e-05
4.798945375e-05
4.717203573e-05
4.838508014e-05
4.78848716e-05
4.704533883e-05
4.796816468e-05
4.840795784e-05
4.655793763e-05
4.809711639e-05
4.700011584e-05
4.675456035e-05
5.162573886e-05
4.932541983e-05
5.219037406e-05
5.294086196e-05
4.849255581e-05
4.74682546e-05
4.770162373e-05
5.320968506e-05
5.406911145e-05
5.496489323e-05
4.82705296e-05
4.838871113e-05
4.687866546e-05
5.640272492e-05
4.932656773e-05
4.845581037e-05
4.813702257e-05
5.510783555e-05
4.787094252e-05
4.734563527e-05
4.680558514e-05
4.761045775e-05
4.94443653e-05
4.748128384e-05
4.771371639e-05
4.664182433e-05
4.814935763e-05
4.747441629e-05
4.879150663e-05
4.817532513e-05
4.794567883e-05
4.71425103e-05
4.796682607e-05
4.984790492e-05
4.783779761e-05
5.233862457e-05
5.376974514e-05
5.247939713e-05
4.765124609e-05
5.418777199e-05
4.812027372e-05
5.242656774e-05
4.890123511e-05
4.736184827e-05
5.328983085e-05
4.668944554e-05
5.572658334e-05
4.790010293e-05
5.623543043e-05
5.727194266e-05
4.832210658e-05
4.918970974e-05
5.34897749e-05
5.515405533e-05
7.317695607e-06
5.594975339e-05
5.03641239e-05
4.869113771e-05
5.22736797e-05
4.729734989e-05
4.790743333e-05
4.789753133e-05
4.860391208e-05
4.772797323e-05
4.719368384e-05
4.811725672e-05
4.782290446e-05
4.767484068e-05
4.615194954e-05
4.824827122e-05
4.629142575e-05
4.535939055e-05
4.716203544e-05
4.628438078e-05
4.773846589e-05
4.777321085e-05
4.523116007e-05
4.724574082e-05
4.980201586e-05
5.455464352e-05
4.739233323e-05
4.888549822e-05
5.612614703e-05
5.50827899e-05
4.727773023e-05
5.31437739e-05
5.264912304e-05
4.731535342e-05
4.958435725e-05
5.710391513e-05
4.369300142e-05
4.676603758e-05
5.358514719e-05
5.043057893e-05
4.737528548e-05
3.115137807e-05
4.965393249e-05
5.485790417e-05
4.864185187e-05
4.764249675e-05
5.258176108e-05
4.872694513e-05
4.770412058e-05
4.78597653e-05
4.730292923e-05
4.776603151e-05
4.776270583e-05
4.868027398e-05
4.616647932e-05
4.803307947e-05
4.841052666e-05
4.905944619e-05
4.813672509e-05
4.734614398e-05
4.817089031e-05
4.753259441e-05
4.965212503e-05
4.758588174e-05
4.93787449e-05
5.55651452e-05
5.428765205e-05
4.876074455e-05
4.786910989e-05
5.413460859e-05
5.062333303e-05
4.747250893e-05
5.470439677e-05
5.457482127e-05
4.945068513e-05
4.746254999e-05
4.797661445e-05
4.771116622e-05
4.706303563e-05
4.654405964e-05
4.713690712e-05
4.874612657e-05
4.704036948e-05
4.82742676e-05
4.898148156e-05
4.724324319e-05
4.832548145e-05
4.847263355e-05
4.882849533e-05
4.660912316e-05
4.771219428e-05
4.915544919e-05
4.666167219e-05
4.785954766e-05
4.683314126e-05
4.774678271e-05
4.832165335e-05
4.906856177e-05
4.781106595e-05
4.993132655e-05
5.567908451e-05
4.739990944e-05
4.693143355e-05
4.884313893e-05
4.821280412e-05
4.831083178e-05
4.838579711e-05
4.785027397e-05
5.412666425e-05
5.50637351e-05
4.771993343e-05
5.01774143e-05
4.855139571e-05
5.761274394e-05
5.395538292e-05
4.722259181e-05
5.565269881e-05
4.812807909e-05
4.708026594e-05
5.598368176e-05
4.751449031e-05
4.844890245e-05
4.553487397e-05
4.761186122e-05
4.68288142e-05
5.506710716e-05
5.689515086e-05
4.992027361e-05
4.642104579e-05
4.722929378e-05
4.668383448e-05
4.783252322e-05
4.635007095e-05
4.717432406e-05
4.829647594e-05
4.841419267e-05
4.700485777e-05
4.799720841e-05
4.80722372e-05
4.704497557e-05
4.659648812e-05
4.805831805e-05
4.791497952e-05
4.716107319e-05
4.764074615e-05
4.566725737e-05
4.782842637e-05
4.634285175e-05
4.747284972e-05
4.615186806e-05
4.631459692e-05
4.705310864e-05
4.772851187e-05
4.750273854e-05
4.771895423e-05
4.634421898e-05
4.721663605e-05
4.771334424e-05
4.652486253e-05
4.903296701e-05
4.695593818e-05
4.771178054e-05
4.673900916e-05
4.873803037e-05
4.870412381e-05
5.122806439e-05
4.934647166e-05
4.830440271e-05
5.543718645e-05
4.768615187e-05
4.849910321e-05
4.721067381e-05
5.416579043e-05
4.79576295e-05
4.779386041e-05
4.673159674e-05
4.672772e-05
4.680069853e-05
4.644269485e-05
4.820985411e-05
4.674819646e-05
4.753910598e-05
4.799609893e-05
4.769666249e-05
4.723968321e-05
4.721177077e-05
4.798043946e-05
4.840543939e-05
4.71303135e-05
4.750333857e-05