/*--------------------------------*- C++ -*----------------------------------*\
  =========                 |
  \\      /  F ield         | OpenFOAM: The Open Source CFD Toolbox
   \\    /   O peration     | Website:  https://openfoam.org
    \\  /    A nd           | Version:  7
     \\/     M anipulation  |
\*---------------------------------------------------------------------------*/
FoamFile
{
    version     2.0;
    format      ascii;
    class       scalarField;
    location    "2/lagrangian/coalCloud1";
    object      mp3;
}
// * * * * * * * * * * * * * * * * * * * * * * * * * * * * * * * * * * * * * //


2000
(
2.685417502e-07
2.685417502e-07
2.685417502e-07
2.685417502e-07
2.685417502e-07
2.685417502e-07
2.685417502e-07
2.685417502e-07
2.685417502e-07
2.685417502e-07
2.685417502e-07
2.685417502e-07
2.685417502e-07
2.685417502e-07
2.685417502e-07
2.685417502e-07
2.685417502e-07
2.685417502e-07
2.685417502e-07
2.685417502e-07
2.685417502e-07
2.685417502e-07
2.685417502e-07
2.685417502e-07
2.685417502e-07
2.685417502e-07
2.685417502e-07
2.685417502e-07
2.685417502e-07
2.685417502e-07
2.685417502e-07
2.685417502e-07
2.685417502e-07
2.685417502e-07
2.685417502e-07
2.685417502e-07
2.685417502e-07
2.685417502e-07
2.685417502e-07
2.685417502e-07
2.685417502e-07
2.685417502e-07
2.685417502e-07
2.685417502e-07
2.685417502e-07
2.685417502e-07
2.685417502e-07
2.685417502e-07
2.685417502e-07
2.685417502e-07
2.685417502e-07
2.685417502e-07
2.685417502e-07
2.685417502e-07
2.685417502e-07
2.685417502e-07
2.685417502e-07
2.685417502e-07
2.685417502e-07
2.685417502e-07
2.685417502e-07
2.685417502e-07
2.685417502e-07
2.685417502e-07
2.685417502e-07
2.685417502e-07
2.685417502e-07
2.685417502e-07
2.685417502e-07
2.685417502e-07
2.685417502e-07
2.685417502e-07
2.685417502e-07
2.685417502e-07
2.685417502e-07
2.685417502e-07
2.685417502e-07
2.685417502e-07
2.685417502e-07
2.685417502e-07
2.685417502e-07
2.685417502e-07
2.685417502e-07
2.685417502e-07
2.685417502e-07
2.685417502e-07
2.685417502e-07
2.685417502e-07
2.685417502e-07
2.685417502e-07
2.685417502e-07
2.685417502e-07
2.685417502e-07
2.685417502e-07
2.685417502e-07
2.685417502e-07
2.685417502e-07
2.685417502e-07
2.685417502e-07
2.685417502e-07
2.685417502e-07
2.685417502e-07
2.685417502e-07
2.685417502e-07
2.685417502e-07
2.685417502e-07
2.685417502e-07
2.685417502e-07
2.685417502e-07
2.685417502e-07
2.685417502e-07
2.685417502e-07
2.685417502e-07
2.685417502e-07
2.685417502e-07
2.685417502e-07
2.685417502e-07
2.685417502e-07
2.685417502e-07
2.685417502e-07
2.685417502e-07
2.685417502e-07
2.685417502e-07
2.685417502e-07
2.685417502e-07
2.685417502e-07
2.685417502e-07
2.685417502e-07
2.685417502e-07
2.685417502e-07
2.685417502e-07
2.685417502e-07
2.685417502e-07
2.685417502e-07
2.685417502e-07
2.685417502e-07
2.685417502e-07
2.685417502e-07
2.685417502e-07
2.685417502e-07
2.685417502e-07
2.685417502e-07
2.685417502e-07
2.685417502e-07
2.685417502e-07
2.685417502e-07
2.685417502e-07
2.685417502e-07
2.685417502e-07
2.685417502e-07
2.685417502e-07
2.685417502e-07
2.685417502e-07
2.685417502e-07
2.685417502e-07
2.685417502e-07
2.685417502e-07
2.685417502e-07
2.685417502e-07
2.685417502e-07
2.685417502e-07
2.685417502e-07
2.685417502e-07
2.685417502e-07
2.685417502e-07
2.685417502e-07
2.685417502e-07
2.685417502e-07
2.685417502e-07
2.685417502e-07
2.685417502e-07
2.685417502e-07
2.685417502e-07
2.685417502e-07
2.685417502e-07
2.685417502e-07
2.685417502e-07
2.685417502e-07
2.685417502e-07
2.685417502e-07
2.685417502e-07
2.685417502e-07
2.685417502e-07
2.685417502e-07
2.685417502e-07
2.685417502e-07
2.685417502e-07
2.685417502e-07
2.685417502e-07
2.685417502e-07
2.685417502e-07
2.685417502e-07
2.685417502e-07
2.685417502e-07
2.685417502e-07
2.685417502e-07
2.685417502e-07
2.685417502e-07
2.685417502e-07
2.685417502e-07
2.685417502e-07
2.685417502e-07
2.685417502e-07
2.685417502e-07
2.685417502e-07
2.685417502e-07
2.685417502e-07
2.685417502e-07
2.685417502e-07
2.685417502e-07
2.685417502e-07
2.685417502e-07
2.685417502e-07
2.685417502e-07
2.685417502e-07
2.685417502e-07
2.685417502e-07
2.685417502e-07
2.685417502e-07
2.685417502e-07
2.685417502e-07
2.685417502e-07
2.685417502e-07
2.685417502e-07
2.685417502e-07
2.685417502e-07
2.685417502e-07
2.685417502e-07
2.685417502e-07
2.685417502e-07
2.685417502e-07
2.685417502e-07
2.685417502e-07
2.685417502e-07
2.685417502e-07
2.685417502e-07
2.685417502e-07
2.685417502e-07
2.685417502e-07
2.685417502e-07
2.685417502e-07
2.685417502e-07
2.685417502e-07
2.685417502e-07
2.685417502e-07
2.685417502e-07
2.685417502e-07
2.685417502e-07
2.685417502e-07
2.685417502e-07
2.685417502e-07
2.685417502e-07
2.685417502e-07
2.685417502e-07
2.685417502e-07
2.685417502e-07
2.685417502e-07
2.685417502e-07
2.685417502e-07
2.685417502e-07
2.685417502e-07
2.685417502e-07
2.685417502e-07
2.685417502e-07
2.685417502e-07
2.685417502e-07
2.685417502e-07
2.685417502e-07
2.685417502e-07
2.685417502e-07
2.685417502e-07
2.685417502e-07
2.685417502e-07
2.685417502e-07
2.685417502e-07
2.685417502e-07
2.685417502e-07
2.685417502e-07
2.685417502e-07
2.685417502e-07
2.685417502e-07
2.685417502e-07
2.685417502e-07
2.685417502e-07
2.685417502e-07
2.685417502e-07
2.685417502e-07
2.685417502e-07
2.685417502e-07
2.685417502e-07
2.685417502e-07
2.685417502e-07
2.685417502e-07
2.685417502e-07
2.685417502e-07
2.685417502e-07
2.685417502e-07
2.685417502e-07
2.685417502e-07
2.685417502e-07
2.685417502e-07
2.685417502e-07
2.685417502e-07
2.685417502e-07
2.685417502e-07
2.685417502e-07
2.685417502e-07
2.685417502e-07
2.685417502e-07
2.685417502e-07
2.685417502e-07
2.685417502e-07
2.685417502e-07
2.685417502e-07
2.685417502e-07
2.685417502e-07
2.685417502e-07
2.685417502e-07
2.685417502e-07
2.685417502e-07
2.685417502e-07
2.685417502e-07
2.685417502e-07
2.685417502e-07
2.685417502e-07
2.685417502e-07
2.685417502e-07
2.685417502e-07
2.685417502e-07
2.685417502e-07
2.685417502e-07
2.685417502e-07
2.685417502e-07
2.685417502e-07
2.685417502e-07
2.685417502e-07
2.685417502e-07
2.685417502e-07
2.685417502e-07
2.685417502e-07
2.685417502e-07
2.685417502e-07
2.685417502e-07
2.685417502e-07
2.685417502e-07
2.685417502e-07
2.685417502e-07
2.685417502e-07
2.685417502e-07
2.685417502e-07
2.685417502e-07
2.685417502e-07
2.685417502e-07
2.685417502e-07
2.685417502e-07
2.685417502e-07
2.685417502e-07
2.685417502e-07
2.685417502e-07
2.685417502e-07
2.685417502e-07
2.685417502e-07
2.685417502e-07
2.685417502e-07
2.685417502e-07
2.685417502e-07
2.685417502e-07
2.685417502e-07
2.685417502e-07
2.685417502e-07
2.685417502e-07
2.685417502e-07
2.685417502e-07
2.685417502e-07
2.685417502e-07
2.685417502e-07
2.685417502e-07
2.685417502e-07
2.685417502e-07
2.685417502e-07
2.685417502e-07
2.685417502e-07
2.685417502e-07
2.685417502e-07
2.685417502e-07
2.685417502e-07
2.685417502e-07
2.685417502e-07
2.685417502e-07
2.685417502e-07
2.685417502e-07
2.685417502e-07
2.685417502e-07
2.685417502e-07
2.685417502e-07
2.685417502e-07
2.685417502e-07
2.685417502e-07
2.685417502e-07
2.685417502e-07
2.685417502e-07
2.685417502e-07
2.685417502e-07
2.685417502e-07
2.685417502e-07
2.685417502e-07
2.685417502e-07
2.685417502e-07
2.685417502e-07
2.685417502e-07
2.685417502e-07
2.685417502e-07
2.685417502e-07
2.685417502e-07
2.685417502e-07
2.685417502e-07
2.685417502e-07
2.685417502e-07
2.685417502e-07
2.685417502e-07
2.685417502e-07
2.685417502e-07
2.685417502e-07
2.685417502e-07
2.685417502e-07
2.685417502e-07
2.685417502e-07
2.685417502e-07
2.685417502e-07
2.685417502e-07
2.685417502e-07
2.685417502e-07
2.685417502e-07
2.685417502e-07
2.685417502e-07
2.685417502e-07
2.685417502e-07
2.685417502e-07
2.685417502e-07
2.685417502e-07
2.685417502e-07
2.685417502e-07
2.685417502e-07
2.685417502e-07
2.685417502e-07
2.685417502e-07
2.685417502e-07
2.685417502e-07
2.685417502e-07
2.685417502e-07
2.685417502e-07
2.685417502e-07
2.685417502e-07
2.685417502e-07
2.685417502e-07
2.685417502e-07
2.685417502e-07
2.685417502e-07
2.685417502e-07
2.685417502e-07
2.685417502e-07
2.685417502e-07
2.685417502e-07
2.685417502e-07
2.685417502e-07
2.685417502e-07
2.685417502e-07
2.685417502e-07
2.685417502e-07
2.685417502e-07
2.685417502e-07
2.685417502e-07
2.685417502e-07
2.685417502e-07
2.685417502e-07
2.685417502e-07
2.685417502e-07
2.685417502e-07
2.685417502e-07
2.685417502e-07
2.685417502e-07
2.685417502e-07
2.685417502e-07
2.685417502e-07
2.685417502e-07
2.685417502e-07
2.685417502e-07
2.685417502e-07
2.685417502e-07
2.685417502e-07
2.685417502e-07
2.685417502e-07
2.685417502e-07
2.685417502e-07
2.685417502e-07
2.685417502e-07
2.685417502e-07
2.685417502e-07
2.685417502e-07
2.685417502e-07
2.685417502e-07
2.685417502e-07
2.685417502e-07
2.685417502e-07
2.685417502e-07
2.685417502e-07
2.685417502e-07
2.685417502e-07
2.685417502e-07
2.685417502e-07
2.685417502e-07
2.685417502e-07
2.685417502e-07
2.685417502e-07
2.685417502e-07
2.685417502e-07
2.685417502e-07
2.685417502e-07
2.685417502e-07
2.685417502e-07
2.685417502e-07
2.685417502e-07
2.685417502e-07
2.685417502e-07
2.685417502e-07
2.685417502e-07
2.685417502e-07
2.685417502e-07
2.685417502e-07
2.685417502e-07
2.685417502e-07
2.685417502e-07
2.685417502e-07
2.685417502e-07
2.685417502e-07
2.685417502e-07
2.685417502e-07
2.685417502e-07
2.685417502e-07
2.685417502e-07
2.685417502e-07
2.685417502e-07
2.685417502e-07
2.685417502e-07
2.685417502e-07
2.685417502e-07
2.685417502e-07
2.685417502e-07
2.685417502e-07
2.685417502e-07
2.685417502e-07
2.685417502e-07
2.685417502e-07
2.685417502e-07
2.685417502e-07
2.685417502e-07
2.685417502e-07
2.685417502e-07
2.685417502e-07
2.685417502e-07
2.685417502e-07
2.685417502e-07
2.685417502e-07
2.685417502e-07
2.685417502e-07
2.685417502e-07
2.685417502e-07
2.685417502e-07
2.685417502e-07
2.685417502e-07
2.685417502e-07
2.685417502e-07
2.685417502e-07
2.685417502e-07
2.685417502e-07
2.685417502e-07
2.685417502e-07
2.685417502e-07
2.685417502e-07
2.685417502e-07
2.685417502e-07
2.685417502e-07
2.685417502e-07
2.685417502e-07
2.685417502e-07
2.685417502e-07
2.685417502e-07
2.685417502e-07
2.685417502e-07
2.685417502e-07
2.685417502e-07
2.685417502e-07
2.685417502e-07
2.685417502e-07
2.685417502e-07
2.685417502e-07
2.685417502e-07
2.685417502e-07
2.685417502e-07
2.685417502e-07
2.685417502e-07
2.685417502e-07
2.685417502e-07
2.685417502e-07
2.685417502e-07
2.685417502e-07
2.685417502e-07
2.685417502e-07
2.685417502e-07
2.685417502e-07
2.685417502e-07
2.685417502e-07
2.685417502e-07
2.685417502e-07
2.685417502e-07
2.685417502e-07
2.685417502e-07
2.685417502e-07
2.685417502e-07
2.685417502e-07
2.685417502e-07
2.685417502e-07
2.685417502e-07
2.685417502e-07
2.685417502e-07
2.685417502e-07
2.685417502e-07
2.685417502e-07
2.685417502e-07
2.685417502e-07
2.685417502e-07
2.685417502e-07
2.685417502e-07
2.685417502e-07
2.685417502e-07
2.685417502e-07
2.685417502e-07
2.685417502e-07
2.685417502e-07
2.685417502e-07
2.685417502e-07
2.685417502e-07
2.685417502e-07
2.685417502e-07
2.685417502e-07
2.685417502e-07
2.685417502e-07
2.685417502e-07
2.685417502e-07
2.685417502e-07
2.685417502e-07
2.685417502e-07
2.685417502e-07
2.685417502e-07
2.685417502e-07
2.685417502e-07
2.685417502e-07
2.685417502e-07
2.685417502e-07
2.685417502e-07
2.685417502e-07
2.685417502e-07
2.685417502e-07
2.685417502e-07
2.685417502e-07
2.685417502e-07
2.685417502e-07
2.685417502e-07
2.685417502e-07
2.685417502e-07
2.685417502e-07
2.685417502e-07
2.685417502e-07
2.685417502e-07
2.685417502e-07
2.685417502e-07
2.685417502e-07
2.685417502e-07
2.685417502e-07
2.685417502e-07
2.685417502e-07
2.685417502e-07
2.685417502e-07
2.685417502e-07
2.685417502e-07
2.685417502e-07
2.685417502e-07
2.685417502e-07
2.685417502e-07
2.685417502e-07
2.685417502e-07
2.685417502e-07
2.685417502e-07
2.685417502e-07
2.685417502e-07
2.685417502e-07
2.685417502e-07
2.685417502e-07
2.685417502e-07
2.685417502e-07
2.685417502e-07
2.685417502e-07
2.685417502e-07
2.685417502e-07
2.685417502e-07
2.685417502e-07
2.685417502e-07
2.685417502e-07
2.685417502e-07
2.685417502e-07
2.685417502e-07
2.685417502e-07
2.685417502e-07
2.685417502e-07
2.685417502e-07
2.685417502e-07
2.685417502e-07
2.685417502e-07
2.685417502e-07
2.685417502e-07
2.685417502e-07
2.685417502e-07
2.685417502e-07
2.685417502e-07
2.685417502e-07
2.685417502e-07
2.685417502e-07
2.685417502e-07
2.685417502e-07
2.685417502e-07
2.685417502e-07
2.685417502e-07
2.685417502e-07
2.685417502e-07
2.685417502e-07
2.685417502e-07
2.685417502e-07
2.685417502e-07
2.685417502e-07
2.685417502e-07
2.685417502e-07
2.685417502e-07
2.685417502e-07
2.685417502e-07
2.685417502e-07
2.685417502e-07
2.685417502e-07
2.685417502e-07
2.685417502e-07
2.685417502e-07
2.685417502e-07
2.685417502e-07
2.685417502e-07
2.685417502e-07
2.685417502e-07
2.685417502e-07
2.685417502e-07
2.685417502e-07
2.685417502e-07
2.685417502e-07
2.685417502e-07
2.685417502e-07
2.685417502e-07
2.685417502e-07
2.685417502e-07
2.685417502e-07
2.685417502e-07
2.685417502e-07
2.685417502e-07
2.685417502e-07
2.685417502e-07
2.685417502e-07
2.685417502e-07
2.685417502e-07
2.685417502e-07
2.685417502e-07
2.685417502e-07
2.685417502e-07
2.685417502e-07
2.685417502e-07
2.685417502e-07
2.685417502e-07
2.685417502e-07
2.685417502e-07
2.685417502e-07
2.685417502e-07
2.685417502e-07
2.685417502e-07
2.685417502e-07
2.685417502e-07
2.685417502e-07
2.685417502e-07
2.685417502e-07
2.685417502e-07
2.685417502e-07
2.685417502e-07
2.685417502e-07
2.685417502e-07
2.685417502e-07
2.685417502e-07
2.685417502e-07
2.685417502e-07
2.685417502e-07
2.685417502e-07
2.685417502e-07
2.685417502e-07
2.685417502e-07
2.685417502e-07
2.685417502e-07
2.685417502e-07
2.685417502e-07
2.685417502e-07
2.685417502e-07
2.685417502e-07
2.685417502e-07
2.685417502e-07
2.685417502e-07
2.685417502e-07
2.685417502e-07
2.685417502e-07
2.685417502e-07
2.685417502e-07
2.685417502e-07
2.685417502e-07
2.685417502e-07
2.685417502e-07
2.685417502e-07
2.685417502e-07
2.685417502e-07
2.685417502e-07
2.685417502e-07
2.685417502e-07
2.685417502e-07
2.685417502e-07
2.685417502e-07
2.685417502e-07
2.685417502e-07
2.685417502e-07
2.685417502e-07
2.685417502e-07
2.685417502e-07
2.685417502e-07
2.685417502e-07
2.685417502e-07
2.685417502e-07
2.685417502e-07
2.685417502e-07
2.685417502e-07
2.685417502e-07
2.685417502e-07
2.685417502e-07
2.685417502e-07
2.685417502e-07
2.685417502e-07
2.685417502e-07
2.685417502e-07
2.685417502e-07
2.685417502e-07
2.685417502e-07
2.685417502e-07
2.685417502e-07
2.685417502e-07
2.685417502e-07
2.685417502e-07
2.685417502e-07
2.685417502e-07
2.685417502e-07
2.685417502e-07
2.685417502e-07
2.685417502e-07
2.685417502e-07
2.685417502e-07
2.685417502e-07
2.685417502e-07
2.685417502e-07
2.685417502e-07
2.685417502e-07
2.685417502e-07
2.685417502e-07
2.685417502e-07
2.685417502e-07
2.685417502e-07
2.685417502e-07
2.685417502e-07
2.685417502e-07
2.685417502e-07
2.685417502e-07
2.685417502e-07
2.685417502e-07
2.685417502e-07
2.685417502e-07
2.685417502e-07
2.685417502e-07
2.685417502e-07
2.685417502e-07
2.685417502e-07
2.685417502e-07
2.685417502e-07
2.685417502e-07
2.685417502e-07
2.685417502e-07
2.685417502e-07
2.685417502e-07
2.685417502e-07
2.685417502e-07
2.685417502e-07
2.685417502e-07
2.685417502e-07
2.685417502e-07
2.685417502e-07
2.685417502e-07
2.685417502e-07
2.685417502e-07
2.685417502e-07
2.685417502e-07
2.685417502e-07
2.685417502e-07
2.685417502e-07
2.685417502e-07
2.685417502e-07
2.685417502e-07
2.685417502e-07
2.685417502e-07
2.685417502e-07
2.685417502e-07
2.685417502e-07
2.685417502e-07
2.685417502e-07
2.685417502e-07
2.685417502e-07
2.685417502e-07
2.685417502e-07
2.685417502e-07
2.685417502e-07
2.685417502e-07
2.685417502e-07
2.685417502e-07
2.685417502e-07
2.685417502e-07
2.685417502e-07
2.685417502e-07
2.685417502e-07
2.685417502e-07
2.685417502e-07
2.685417502e-07
2.685417502e-07
2.685417502e-07
2.738513542e-07
2.685417502e-07
2.685417502e-07
2.685417502e-07
2.771150454e-07
2.685417502e-07
2.685417502e-07
2.685417502e-07
2.714772681e-07
2.685417502e-07
2.685417502e-07
2.685417502e-07
2.685417502e-07
2.685417502e-07
2.685417502e-07
2.685417502e-07
2.685417502e-07
2.685417502e-07
2.685417502e-07
2.685417502e-07
2.685417502e-07
2.685417502e-07
2.685417502e-07
2.685417502e-07
2.685417502e-07
2.685417502e-07
2.685417502e-07
2.685417502e-07
2.685417502e-07
2.685417502e-07
2.685417502e-07
2.685417502e-07
2.685417502e-07
2.685417502e-07
2.685417502e-07
2.685417502e-07
2.685417502e-07
2.685417502e-07
2.685417502e-07
2.685417502e-07
2.685417502e-07
2.685417502e-07
2.685417502e-07
2.685417502e-07
2.685417502e-07
2.685417502e-07
2.685417502e-07
2.685417502e-07
2.685417502e-07
2.685417502e-07
2.685417502e-07
2.685417502e-07
2.685417502e-07
2.685417502e-07
2.685417502e-07
2.685417502e-07
2.685417502e-07
2.685417502e-07
2.685417502e-07
2.685417502e-07
2.685417502e-07
2.685417502e-07
2.685417502e-07
2.685417502e-07
2.685417502e-07
2.685417502e-07
2.685417502e-07
2.685417502e-07
2.685417502e-07
2.685417502e-07
2.685417502e-07
2.685417502e-07
2.685417502e-07
2.685417502e-07
2.685417502e-07
2.685417502e-07
2.685417502e-07
2.685417502e-07
2.685417502e-07
2.685417502e-07
2.685417502e-07
2.685417502e-07
2.685417502e-07
2.685417502e-07
2.685417502e-07
2.685417502e-07
2.685417502e-07
2.685417502e-07
2.685417502e-07
2.685417502e-07
2.685417502e-07
2.685417502e-07
2.685417502e-07
2.685417502e-07
2.685417502e-07
2.685417502e-07
2.685417502e-07
2.685417502e-07
2.685417502e-07
2.685417502e-07
2.685417502e-07
2.685417502e-07
2.685417502e-07
2.685417502e-07
2.685417502e-07
2.685417502e-07
2.685417502e-07
2.685417502e-07
2.685417502e-07
2.685417502e-07
2.685417502e-07
2.685417502e-07
2.685417502e-07
2.685417502e-07
2.685417502e-07
2.685417502e-07
2.685417502e-07
2.685417502e-07
2.685417502e-07
2.685417502e-07
2.685417502e-07
2.685417502e-07
2.685417502e-07
2.685417502e-07
2.685417502e-07
2.685417502e-07
2.685417502e-07
2.685417502e-07
2.685417502e-07
2.685417502e-07
2.685417502e-07
2.685417502e-07
2.685417502e-07
2.685417502e-07
2.685417502e-07
2.685417502e-07
2.685417502e-07
2.685417502e-07
2.685417502e-07
2.685417502e-07
2.685417502e-07
2.685417502e-07
2.685417502e-07
2.685417502e-07
2.685417502e-07
2.685417502e-07
2.685417502e-07
2.685417502e-07
2.685417502e-07
2.685417502e-07
2.685417502e-07
2.685417502e-07
2.685417502e-07
2.685417502e-07
2.685417502e-07
2.685417502e-07
2.685417502e-07
2.685417502e-07
2.685417502e-07
2.685417502e-07
2.685417502e-07
2.685417502e-07
2.685417502e-07
2.685417502e-07
2.685417502e-07
2.685417502e-07
2.685417502e-07
2.685417502e-07
2.685417502e-07
2.685417502e-07
2.685417502e-07
2.685417502e-07
2.685417502e-07
2.685417502e-07
2.685417502e-07
2.685417502e-07
2.685417502e-07
2.685417502e-07
2.685417502e-07
2.685417502e-07
2.685417502e-07
2.685417502e-07
2.685417502e-07
2.685417502e-07
2.685417502e-07
2.685417502e-07
2.685417502e-07
2.685417502e-07
2.783607009e-07
2.685417502e-07
2.685417502e-07
2.685417502e-07
2.685417502e-07
2.685417502e-07
2.685417502e-07
2.685417502e-07
2.685417502e-07
2.685417502e-07
2.685417502e-07
2.685417502e-07
2.685417502e-07
2.685417502e-07
2.685417502e-07
2.685417502e-07
2.685417502e-07
2.685417502e-07
2.685417502e-07
2.685417502e-07
2.685417502e-07
2.685417502e-07
2.685417502e-07
2.685417502e-07
2.685417502e-07
2.685417502e-07
2.685417502e-07
2.685417502e-07
2.685417502e-07
2.685417502e-07
2.685417502e-07
2.685417502e-07
2.685417502e-07
2.685417502e-07
2.685417502e-07
2.685417502e-07
2.685417502e-07
2.685417502e-07
2.685417502e-07
2.685417502e-07
2.685417502e-07
2.685417502e-07
2.685417502e-07
2.685417502e-07
2.685417502e-07
2.685417502e-07
2.685417502e-07
2.685417502e-07
2.685417502e-07
2.685417502e-07
2.685417502e-07
2.685417502e-07
2.685417502e-07
2.685417502e-07
2.685417502e-07
2.685417502e-07
2.685417502e-07
2.685417502e-07
2.685417502e-07
2.685417502e-07
2.685417502e-07
2.685417502e-07
2.685417502e-07
2.685417502e-07
2.685417502e-07
2.685417502e-07
2.685417502e-07
2.685417502e-07
2.685417502e-07
2.685417502e-07
2.685417502e-07
2.685417502e-07
2.685417502e-07
2.685417502e-07
2.685417502e-07
2.685417502e-07
2.685417502e-07
2.685417502e-07
2.685417502e-07
2.685417502e-07
2.685417502e-07
2.685417502e-07
2.685417502e-07
2.685417502e-07
2.685417502e-07
2.685417502e-07
2.685417502e-07
2.685417502e-07
2.685417502e-07
2.685417502e-07
2.685417502e-07
2.685417502e-07
2.685417502e-07
2.685417502e-07
2.685417502e-07
2.685417502e-07
2.685417502e-07
2.685417502e-07
2.685417502e-07
2.685417502e-07
2.685417502e-07
2.685417502e-07
2.685417502e-07
2.685417502e-07
2.685417502e-07
2.685417502e-07
2.685417502e-07
2.685417502e-07
2.685417502e-07
2.685417502e-07
2.685417502e-07
2.685417502e-07
2.685417502e-07
2.685417502e-07
2.685417502e-07
2.685417502e-07
2.685417502e-07
2.685417502e-07
2.685417502e-07
2.685417502e-07
2.685417502e-07
2.685417502e-07
2.685417502e-07
2.685417502e-07
2.685417502e-07
2.685417502e-07
2.685417502e-07
2.685417502e-07
2.685417502e-07
2.685417502e-07
2.685417502e-07
2.685417502e-07
2.685417502e-07
2.685417502e-07
2.685417502e-07
2.685417502e-07
2.685417502e-07
2.685417502e-07
2.685417502e-07
2.685417502e-07
2.685417502e-07
2.685417502e-07
2.685417502e-07
2.685417502e-07
2.685417502e-07
2.685417502e-07
2.685417502e-07
2.685417502e-07
2.685417502e-07
2.685417502e-07
2.685417502e-07
2.685417502e-07
2.685417502e-07
2.685417502e-07
2.685417502e-07
2.685417502e-07
2.685417502e-07
2.685417502e-07
2.685417502e-07
2.685417502e-07
2.685417502e-07
2.685417502e-07
2.685417502e-07
2.685417502e-07
2.685417502e-07
2.685417502e-07
2.685417502e-07
2.685417502e-07
2.685417502e-07
2.685417502e-07
2.685417502e-07
2.685417502e-07
2.685417502e-07
2.685417502e-07
2.685417502e-07
2.685417502e-07
2.685417502e-07
2.685417502e-07
2.69143493e-07
2.685417502e-07
2.685417502e-07
2.685417502e-07
2.685417502e-07
2.685417502e-07
2.685417502e-07
2.685417502e-07
2.685417502e-07
2.685417502e-07
2.697713508e-07
2.685417502e-07
2.685417502e-07
2.685417502e-07
2.685417502e-07
2.685417502e-07
2.685417502e-07
2.685417502e-07
2.685417502e-07
2.685417502e-07
2.685417502e-07
2.685417502e-07
2.685417502e-07
2.685417502e-07
2.685417502e-07
2.685417502e-07
2.685417502e-07
2.685417502e-07
2.685417502e-07
2.685417502e-07
2.685417502e-07
2.685417502e-07
2.685417502e-07
2.685417502e-07
2.685417502e-07
2.685417502e-07
2.685417502e-07
2.685417502e-07
2.685417502e-07
2.685417502e-07
2.685417502e-07
2.685417502e-07
2.685417502e-07
2.685417502e-07
2.685417502e-07
2.685417502e-07
2.685417502e-07
2.685417502e-07
2.685417502e-07
2.685417502e-07
2.685417502e-07
2.685417502e-07
2.685417502e-07
2.685417502e-07
2.685417502e-07
2.685417502e-07
2.685417502e-07
2.685417502e-07
2.685417502e-07
2.685417502e-07
2.685417502e-07
2.685417502e-07
2.685417502e-07
2.685417502e-07
2.685417502e-07
2.685417502e-07
2.685417502e-07
2.685417502e-07
2.685417502e-07
2.685417502e-07
2.685417502e-07
2.685417502e-07
2.685417502e-07
2.685417502e-07
2.685417502e-07
2.685417502e-07
2.685417502e-07
2.685417502e-07
2.685417502e-07
2.685417502e-07
2.685417502e-07
2.685417502e-07
2.685417502e-07
2.685417502e-07
2.685417502e-07
2.685417502e-07
2.685417502e-07
2.685417502e-07
2.685417502e-07
2.685417502e-07
2.685417502e-07
2.685417502e-07
2.685417502e-07
2.685417502e-07
2.685417502e-07
2.685417502e-07
2.685417502e-07
2.685417502e-07
2.685417502e-07
2.685417502e-07
2.685417502e-07
2.685417502e-07
2.685417502e-07
2.685417502e-07
2.685417502e-07
2.685417502e-07
2.685417502e-07
2.685417502e-07
2.685417502e-07
2.685417502e-07
2.685417502e-07
2.685417502e-07
2.685417502e-07
2.685417502e-07
2.685417502e-07
2.685417502e-07
2.685417502e-07
2.685417502e-07
2.685417502e-07
2.685417502e-07
2.685417502e-07
2.685417502e-07
2.685417502e-07
2.685417502e-07
2.685417502e-07
2.685417502e-07
2.685417502e-07
2.685417502e-07
2.685417502e-07
2.685417502e-07
2.685417502e-07
2.685417502e-07
2.685417502e-07
2.685417502e-07
2.685417502e-07
2.685417502e-07
2.685417502e-07
2.685417502e-07
2.685417502e-07
2.685417502e-07
2.685417502e-07
2.685417502e-07
2.685417502e-07
2.685417502e-07
2.685417502e-07
2.685417502e-07
2.685417502e-07
2.685417502e-07
2.685417502e-07
2.685417502e-07
2.685417502e-07
2.685417502e-07
2.685417502e-07
2.685417502e-07
2.685417502e-07
2.685417502e-07
2.685417502e-07
2.685417502e-07
2.685417502e-07
2.685417502e-07
2.685417502e-07
2.685417502e-07
2.685417502e-07
2.685417502e-07
2.685417502e-07
2.685417502e-07
2.685417502e-07
2.685417502e-07
2.685417502e-07
2.685417502e-07
2.685417502e-07
2.685417502e-07
2.685417502e-07
2.685417502e-07
2.685417502e-07
2.685417502e-07
2.685417502e-07
2.685417502e-07
2.685417502e-07
2.685417502e-07
2.685417502e-07
2.685417502e-07
2.685417502e-07
2.685417502e-07
2.685417502e-07
2.685417502e-07
2.685417502e-07
2.685417502e-07
2.685417502e-07
2.715254825e-07
2.699012121e-07
2.685417502e-07
2.727525432e-07
2.685417502e-07
5.03138903e-07
4.995879685e-07
7.096791904e-07
2.709575602e-07
7.925010559e-07
6.604396888e-07
6.763925822e-07
6.781946401e-07
7.000494941e-07
5.171985454e-07
6.306295248e-07
7.17976673e-07
4.91264197e-07
4.911054327e-07
7.129100147e-07
7.388973582e-07
2.707422959e-07
5.420644867e-07
5.337681229e-07
2.717192743e-07
2.68685876e-07
5.117621925e-07
7.710201928e-07
6.74404001e-07
2.702777114e-07
2.68650394e-07
7.267139566e-07
8.214327151e-07
8.099420287e-07
6.60161553e-07
7.423106004e-07
7.233896804e-07
8.333167367e-07
8.206352721e-07
7.123419966e-07
7.193540215e-07
8.667900814e-07
8.445439105e-07
7.644965539e-07
8.506864e-07
8.362220692e-07
7.615803677e-07
7.287739437e-07
8.163346623e-07
8.18189181e-07
8.666402363e-07
7.409551723e-07
8.145172989e-07
8.097307846e-07
8.806375192e-07
8.442075285e-07
7.66276706e-07
7.261940869e-07
5.299241914e-07
5.434187706e-07
4.990931415e-07
6.193431072e-07
7.178696656e-07
5.478660816e-07
4.725919027e-07
6.554799633e-07
5.022412085e-07
5.708496662e-07
6.859373719e-07
5.054751147e-07
5.078784735e-07
6.986647461e-07
6.893670867e-07
7.370688661e-07
7.442927838e-07
7.09891796e-07
7.024793051e-07
7.283288996e-07
7.211537452e-07
6.192252526e-07
7.674060799e-07
7.049352044e-07
6.982164381e-07
7.365783685e-07
7.609467352e-07
7.301615256e-07
7.791380417e-07
6.93230784e-07
7.191556791e-07
7.000377295e-07
7.447718012e-07
6.957208744e-07
5.246904064e-07
6.47327096e-07
5.212608305e-07
5.075185657e-07
6.329216255e-07
6.73545596e-07
6.270181677e-07
5.078938967e-07
4.953967987e-07
4.737914574e-07
6.456264642e-07
6.048690378e-07
6.684069073e-07
4.616434411e-07
5.855424028e-07
5.015021241e-07
5.006513151e-07
5.28120497e-07
7.572160829e-07
7.252607404e-07
7.158664252e-07
7.242038671e-07
6.159988434e-07
7.149235545e-07
7.293166145e-07
7.072416285e-07
7.106518839e-07
7.872595915e-07
6.218382335e-07
6.735617239e-07
6.776031851e-07
7.01763211e-07
7.442573608e-07
4.514417687e-07
6.89599126e-07
5.245766746e-07
5.156361658e-07
2.770569417e-07
7.342357835e-07
5.179477848e-07
7.023492869e-07
5.658968415e-07
5.299874822e-07
7.487007735e-07
5.626621979e-07
6.892193483e-07
4.800129722e-07
6.916715094e-07
2.777000258e-07
2.722414136e-07
5.164066223e-07
5.688371332e-07
4.961840612e-07
5.000557461e-07
3.859869859e-07
5.340341909e-07
5.150698339e-07
6.869222297e-07
5.149434862e-07
7.006839483e-07
6.971375606e-07
7.209957578e-07
6.803549892e-07
8.014212675e-07
7.879086628e-07
7.018228761e-07
7.21471128e-07
8.055053091e-07
7.393048234e-07
7.208039637e-07
7.893116462e-07
7.906439522e-07
7.264214723e-07
7.866531139e-07
7.347819328e-07
7.499929564e-07
7.754334929e-07
7.110376724e-07
5.411673838e-07
2.711789344e-07
6.204349375e-07
5.680816124e-07
2.793865868e-07
4.632977747e-07
7.265966935e-07
5.588542403e-07
5.378935477e-07
7.149125025e-07
5.164441301e-07
2.732835893e-07
2.751930158e-07
7.687324222e-07
5.157869731e-07
2.703653849e-07
7.197888077e-07
2.720722107e-07
5.02217188e-07
5.509954057e-07
6.035481288e-07
6.569864463e-07
4.818957895e-07
5.909263624e-07
7.477580464e-07
6.292510905e-07
6.894624525e-07
6.910649177e-07
7.434068922e-07
7.190039443e-07
7.243849951e-07
7.435879095e-07
6.903371634e-07
6.45101063e-07
7.657175999e-07
7.607792618e-07
7.34038122e-07
6.933297164e-07
5.834644026e-07
7.06564201e-07
5.797252547e-07
5.304119014e-07
5.182619102e-07
6.955597706e-07
6.615089291e-07
5.191781375e-07
5.392596234e-07
6.620694432e-07
5.165827954e-07
5.17580441e-07
6.328707781e-07
6.823990734e-07
5.522881721e-07
6.366904095e-07
6.990538115e-07
7.425886509e-07
7.816442732e-07
6.710454846e-07
7.644712418e-07
7.46388835e-07
6.012562317e-07
6.953177335e-07
7.267475953e-07
7.650946174e-07
7.141926059e-07
7.43709497e-07
7.051701392e-07
6.258220905e-07
7.841097846e-07
7.36608939e-07
7.745974089e-07
7.734890997e-07
6.119545257e-07
5.801931292e-07
6.213057946e-07
2.685417502e-07
4.570772451e-07
6.277230484e-07
6.371409172e-07
4.680440094e-07
5.696035824e-07
6.921974201e-07
4.93341424e-07
5.03331777e-07
4.455265254e-07
4.367137749e-07
5.726526964e-07
5.453215995e-07
5.487087686e-07
2.731293938e-07
4.996320674e-07
7.091790599e-07
4.939646927e-07
6.940800326e-07
7.448622697e-07
4.877958998e-07
6.895608143e-07
6.666270518e-07
7.741955009e-07
5.701219502e-07
7.111131585e-07
5.166897255e-07
2.697866544e-07
2.691454312e-07
7.495104466e-07
6.595868187e-07
7.26470396e-07
6.752287071e-07
6.738435828e-07
7.412280905e-07
6.242684504e-07
6.286741015e-07
6.549289846e-07
7.722618392e-07
7.469187226e-07
7.51178189e-07
7.945918294e-07
7.467541304e-07
7.488303688e-07
7.293333107e-07
7.870926272e-07
7.583380377e-07
7.34801742e-07
7.700741337e-07
7.185922978e-07
7.383498209e-07
7.605684864e-07
7.764359617e-07
7.760346906e-07
7.048358596e-07
7.083082772e-07
7.846908031e-07
8.128941391e-07
7.462529975e-07
7.883411649e-07
5.568969224e-07
6.875142532e-07
6.327231947e-07
7.175738118e-07
5.316802858e-07
5.755112219e-07
5.649521941e-07
5.621055165e-07
6.093097491e-07
2.746643855e-07
6.313892228e-07
5.54966916e-07
6.664810812e-07
4.922893789e-07
5.955751247e-07
7.626391394e-07
7.023376994e-07
7.179890747e-07
7.103633336e-07
7.936569193e-07
7.488521939e-07
7.879212342e-07
7.375172404e-07
7.245856162e-07
7.730889149e-07
7.882315257e-07
7.485185967e-07
6.837407511e-07
6.503695765e-07
6.905015041e-07