/*--------------------------------*- C++ -*----------------------------------*\
  =========                 |
  \\      /  F ield         | OpenFOAM: The Open Source CFD Toolbox
   \\    /   O peration     | Website:  https://openfoam.org
    \\  /    A nd           | Version:  7
     \\/     M anipulation  |
\*---------------------------------------------------------------------------*/
FoamFile
{
    version     2.0;
    format      ascii;
    class       scalarField;
    location    "2/lagrangian/coalCloud1";
    object      neighbourMin;
}
// * * * * * * * * * * * * * * * * * * * * * * * * * * * * * * * * * * * * * //


2000
(
297.9999841
297.9999667
297.9999917
297.9999667
297.9999667
298.0000006
297.9999917
297.9999943
297.9999908
297.9999841
298.0000117
298.0002074
297.9999998
297.9999943
297.9999908
298.0000678
298.0001897
298.0000128
298.0000014
297.9999943
297.9999971
298.0001431
297.9999963
298.0000118
297.9999971
297.9999887
297.9999917
297.9999451
297.9999716
297.9999716
297.9999872
297.9999667
297.9999837
297.9999981
297.9999981
297.9999928
297.9999716
298.0000537
298.0000084
297.9999825
297.9999971
297.9999928
298.0000006
297.999995
297.9999663
297.9999451
297.9999451
297.999972
297.9999663
297.9999451
297.9999792
297.9999844
297.9999663
297.9999825
297.9999825
297.9999639
297.9999663
297.9999663
297.9999928
297.9999417
298.0000117
298.0000538
297.999995
298.000169
298.0000126
297.9998977
297.9999417
297.9999999
297.9999451
297.9999451
297.9999639
297.9999938
297.9999639
297.9999938
297.9999825
298.0000084
298.0000847
297.999995
297.9999928
297.9999417
298.0000538
297.9999749
298.0007181
298.0007634
298.0007634
298.0000123
297.999998
298.0000095
297.999963
297.999963
297.9999965
297.9999841
297.999963
297.9999736
297.9999841
297.999963
297.9999669
297.9999736
298.0000758
298.0007634
298.0001105
297.999996
298.0000095
297.999996
297.9999841
297.9999841
297.9999847
297.9999847
297.9999614
298.0002981
298.0001105
298.0003155
298.0000847
298.0000304
297.9999965
297.9999837
297.999996
297.9999939
297.9999939
297.9999837
297.9999837
297.9999304
297.9999614
297.9999304
297.9999614
298.0002741
298.0023557
298.0001105
298.0000487
298.0000304
298.0001195
297.9999837
297.9999304
297.9999663
297.9999304
297.9999931
297.9999614
297.9999961
297.9999772
297.9999669
297.9999934
297.9999122
297.9999917
297.9999879
297.9999971
297.9999944
297.9999834
297.9999924
297.9999834
297.9999632
297.999972
297.999966
297.9999382
297.9999632
297.9999122
297.999995
297.9999122
297.9999451
297.9999122
297.9999961
297.9999879
297.9999914
297.999966
297.9999622
297.999972
297.9999632
297.9999669
298.0000045
297.9999929
298.0000059
297.9999122
297.9999844
297.9999451
297.9999622
297.9999914
297.9999885
297.9999622
297.9999702
297.9999382
297.9999938
297.9999929
298.0000021
298.0000059
297.9999929
298.0000059
297.9999622
297.9999792
297.9999885
297.9999622
297.9999622
297.9999956
297.9998369
297.9999304
297.9999749
297.9999667
297.9999914
297.9999959
298.0000041
298.0000395
297.9999914
297.9999985
297.9999993
298.0000003
298.0000262
297.99999
297.99999
297.99999
297.9999991
297.9999985
297.9999943
298.0000484
297.9999991
298.0000053
297.99999
298.0001904
297.9999913
297.9999911
297.9999911
297.9999976
297.9999716
297.9999842
298.000001
298.0000001
298.000001
297.99999
297.99999
297.99999
297.9999959
297.9999987
298.0000524
297.9999946
297.9999987
298.0000005
298.0000842
297.9999776
298.000001
297.9999776
297.9999842
297.9999948
297.9999842
297.9999932
297.9999946
298.0000001
297.9999993
297.9999948
297.99999
297.9999417
297.9999987
297.9999946
297.99999
297.9999381
297.9999946
298.0000205
297.9999639
297.9999842
297.9999998
297.9999639
298.0000003
297.9999948
297.9999639
298.000008
297.99999
297.9999417
298.0000029
297.9999948
297.9999814
297.9999987
297.9999946
297.9999381
297.9999946
297.9999946
298.0000103
298.0004507
298.0003751
298.0001861
298.0001861
297.9999554
297.9999991
298.0001861
298.0002143
297.99999
297.9999991
298.0000696
298.0000413
298.0000856
297.9999922
298.0000642
298.0000413
298.0000001
297.9998872
297.9999797
297.99999
297.9999978
297.99999
298.0000108
297.9999554
297.9999922
298.0000255
297.9999685
297.9999831
298.0000001
298.0000001
297.9999978
297.9999948
297.9999554
297.999991
297.99999
297.9999685
297.9999554
297.99999
297.9999685
298.0000205
297.9999831
297.9999685
298.0000255
297.9999643
298.0000001
298.0000037
297.9999987
297.999991
297.9999554
298.0000052
297.9999934
297.9999554
298.0000118
297.9999922
297.9999831
298.0000309
297.9999922
297.9999761
297.9999831
297.9999924
297.9999569
297.9999328
297.9999913
297.9999939
297.9999328
298.0000016
297.9999888
297.9999328
298.0000092
297.9999985
297.9999891
298.0010835
298.0003698
298.0003751
297.999972
297.9999914
297.9999195
297.9998369
297.9999842
297.9999569
297.9998317
297.9999195
297.9999946
297.9999756
298.0000044
297.9999978
298.0003523
298.0003842
298.0004714
297.9999776
297.9999382
297.9999841
297.9999233
297.9999195
297.9998317
297.9998317
297.9999195
297.9998317
297.9998317
297.9999888
297.9999911
297.9999046
297.9999978
297.9999797
297.9999233
297.9998369
297.9998369
297.9999233
297.9999195
297.9998317
297.9998317
297.9998317
297.9998317
297.9998982
297.9998982
297.9999046
297.9999797
297.9999952
298.0000083
297.9999957
297.9999887
297.9999896
297.9999276
297.9999276
297.9999952
297.9999952
297.9999276
297.9999276
297.9999959
297.9999906
297.9999959
297.9999858
297.9999484
297.9998946
297.9999484
297.9999484
297.9999978
297.9999906
297.9999858
297.9999484
297.9999865
297.9999952
297.9999952
297.9999638
297.9999431
297.9999971
297.9999971
297.9999952
297.9999638
297.9999888
297.9999952
297.9999959
297.9999602
297.9998946
297.999974
297.9999896
297.9998946
297.9999906
297.9998946
297.9999952
297.9999867
297.9999952
297.9998977
297.9999381
297.9999385
297.9999381
297.9999938
297.9999602
297.9998977
297.9999385
297.9999881
297.9999879
297.9999602
297.9999385
297.999974
297.9999917
297.9999917
297.9999952
297.9999928
297.999985
297.9999978
297.9999952
297.9999928
298.0000035
298.0000177
297.9998977
297.9999479
297.9999479
297.9998977
297.9999385
297.9999385
297.9999818
297.999974
297.9999385
297.9999991
297.999974
297.9999917
297.9999975
298.0000083
297.999991
297.9999293
297.9999759
297.9999293
297.9999466
297.9999865
297.9999867
297.999992
297.999992
298.0000455
298.0000802
297.9999867
298.0000455
298.0013931
298.0000455
297.99996
297.9999974
297.9999466
297.9999023
297.9999996
297.999992
297.9999952
298.0002
298.0000802
298.0002
298.0000492
298.0013331
297.99996
297.9999023
297.9999996
297.9999756
297.9999756
298.0001031
298.0003765
297.9999756
298.0000046
298.0002
298.0002717
298.000024
298.0002
298.0000216
298.0000365
297.9999485
297.9999023
298.0002328
297.9999485
298.0000083
298.0014571
298.0002
298.0000199
298.0002
298.0002717
298.0001044
298.0013331
298.0011713
298.0011713
298.0000045
298.001792
298.000757
298.0009343
298.0000045
298.0007181
298.0009343
297.9999963
298.0007051
298.0007181
298.0007793
298.0001266
297.9999978
298.0000286
297.9999966
298.0000286
297.9999966
298.0000059
298.0001247
298.0001247
297.9999958
298.000365
298.0000006
298.0003155
297.9999978
297.9999966
297.9998712
297.9999917
297.9998712
297.9999966
297.9999958
298.0000773
298.00026
298.0000006
298.0002309
298.000365
298.0000199
298.0001266
297.9999818
297.9998712
297.9998712
297.9998712
297.9999938
297.9999938
297.9999922
297.9999938
298.0002981
297.9999922
298.000365
298.0003155
297.9999984
297.999985
298.0016776
298.0000692
298.0002568
298.0003182
298.0002644
298.0000368
298.0000022
297.9999984
298.0000259
297.9999276
297.99999
297.9999894
297.9999983
298.0000074
298.0000063
297.9999276
297.9999894
297.9999903
297.9999959
298.0000213
297.9999894
297.9999903
297.9999903
297.999991
298.0000134
297.9999381
297.9999986
298.0000296
298.0000081
297.9999381
298.0000002
297.9999969
297.9999431
297.9999894
297.999938
297.999987
297.9999985
297.9998946
297.999938
297.9999969
297.9999959
298.0000087
297.999987
297.9999928
297.9999903
297.9999959
298.0000024
297.9999381
297.9999946
297.9999997
298.0000081
297.9999381
297.9999969
297.9999969
297.999987
297.999987
297.9999881
297.999938
297.999938
297.999938
297.9999972
297.9999975
297.9999818
297.9999381
297.9999997
298.0001176
298.0000309
298.0000022
298.0000032
297.9999761
298.0000012
297.999938
297.9999986
297.999987
297.999985
298.0000164
297.999987
297.999987
298.0000164
297.999938
297.9999955
298.000126
298.0000908
298.0000024
298.0000413
298.0000063
298.0000001
297.9999643
297.9998872
298.0000074
298.0000044
297.999996
297.9998872
298.0000063
297.9999927
297.9999851
298.0000005
297.9999219
298.0000074
297.9999219
298.0009597
298.0010043
297.9999643
297.9999643
297.9999295
297.9999851
298.0000015
297.9999934
297.9999899
297.9998474
297.9999219
297.9999219
297.9999219
298.0001577
297.9999219
297.9999703
297.9999643
297.9999295
297.9999295
297.9999703
297.9998474
297.9998474
297.9999845
297.9998474
297.9999219
297.9999818
297.999809
297.9999703
297.9999295
297.9999688
297.9999688
297.9999688
297.9999688
297.9999899
297.999996
297.9998474
297.9999845
297.9999845
297.999809
297.999809
298.0841678
298.000069
297.9999959
298.0000018
297.9999903
298.0000018
297.9999668
298.0000792
298.0000018
297.9999932
297.999967
297.9999903
298.0000118
297.9999893
297.999991
297.99996
297.9999293
298.0000218
298.0001322
297.9999456
297.9999781
297.9999668
297.9999668
298.0000065
297.9999802
297.9999942
297.999967
298.0000792
298.0000035
297.99996
297.99996
297.99996
297.9999781
297.9999432
297.9999975
297.999967
297.9999456
297.9999432
297.999967
298.0001092
297.9999765
297.9999785
297.9999785
297.9999023
297.999809
297.999809
297.9999432
297.9999432
297.9999802
297.9999456
297.9999765
297.9999765
298.0002013
297.9999785
297.9999785
297.9999456
297.9999814
298.0000904
298.0002212
298.0000056
297.9999663
298.0000056
297.9999639
298.0000084
297.9999825
298.0002156
297.9999417
298.0002683
298.0000832
298.0006851
298.000023
297.9999417
298.0027295
298.0002113
298.0002314
298.0013442
298.0020333
298.0003532
298.0002212
298.0002212
298.0020333
298.0006648
298.0002156
298.0005252
298.0001371
298.0000832
298.086051
298.0006315
298.046733
298.0002895
298.1867675
298.1233859
298.1233859
298.1766487
298.2371349
298.0732537
298.0794432
298.1867675
298.1637958
298.1075569
298.1637958
298.3731428
298.086051
298.0060546
299.6142757
298.0597664
298.086051
298.046733
330.7335678
335.1898945
337.3829347
345.8229714
330.7335678
330.7335678
298.249967
330.3448138
330.3448138
299.6142757
331.9989802
328.4147167
336.4705806
330.3448138
327.7282795
328.4147167
298.0180396
298.0016776
298.0016776
298.0000487
298.0016627
297.9999999
298.0000487
297.9999304
298.0010679
298.0000415
298.0002909
298.0391073
298.0207267
298.0094178
298.0018571
298.0018571
298.0076729
298.0571978
298.0018571
298.000234
298.0001195
298.000234
298.0010679
298.0008672
298.0010679
298.0027295
298.0027665
298.155692
327.0507284
298.1061945
298.0739962
298.1143964
330.9271747
298.2610887
298.0571978
298.2489514
298.0889327
298.148014
298.155692
298.155692
298.1542041
326.0919811
326.0919811
331.3994975
331.3994975
298.1993329
336.6650289
323.7116074
337.3829347
334.5718399
334.5718399
325.440374
333.8718937
298.0000904
298.0001136
298.0000032
298.0004278
298.0001743
298.0905838
298.0001797
298.0002967
298.0000031
298.0000179
298.000094
298.0019471
298.1731166
298.0013442
298.0925003
298.0905838
298.0002878
298.0905838
298.0975002
298.0450679
298.0000614
298.0175661
298.01534
298.0171887
298.0000973
298.0450679
298.1542041
298.4015239
298.1990781
298.2024928
300.1470686
298.1731166
298.2537294
298.1560837
298.2546629
298.2546629
334.8263947
333.8718937
347.7259797
318.5529709
334.8263947
300.1470686
298.3871632
298.3871632
342.5253658
298.2546629
320.1741383
298.3943208
327.7880905
298.3047443
330.7335678
346.4604613
339.9763378
335.1898945
331.9989802
347.7259797
326.9875684
342.5253658
334.1158865
339.9763378
333.7173997
297.9999639
298.0000022
297.9999932
298.0000037
298.0001735
297.9999971
297.9999932
298.0003632
298.0000432
297.9999948
298.0001079
298.0001079
298.0000103
298.0000341
297.9999946
298.0000103
298.0000043
298.0001698
298.0004278
298.0003632
298.0006275
298.0003502
298.0786641
298.001185
297.9999932
298.0002226
298.0005252
298.0752693
298.001185
298.0007577
298.0180881
298.0011391
298.0011391
298.0013289
298.0451929
298.046733
298.0752693
298.0003084
298.2057713
298.1029826
298.119203
298.119203
298.0615621
326.4634858
298.2584617
327.3259162
298.0943575
298.1029826
298.2367985
298.0794662
298.0786641
298.2250188
298.2356425
298.0752693
298.2367985
298.1793567
298.1702127
298.1329436
298.1164955
331.4671037
327.6679215
327.3259162
335.1396432
331.2814179
332.7681037
323.5854618
333.144761
327.6679215
329.8208669
298.2356425
326.4634858
333.0887277
329.793305
324.5122266
330.12295
327.0289831
324.5395391
298.0006275
298.0002335
297.999991
298.0001054
298.000181
297.999991
298.0008022
298.0002904
298.0002452
297.9999831
298.0002452
298.0001227
298.000335
298.0015214
298.0015214
298.0006275
298.0015214
298.000181
298.0164242
298.000181
298.0487142
298.0009917
298.0006273
298.0702283
298.0702283
298.1492479
298.1492479
298.1935952
298.1352992
298.0612066
298.0580304
298.0989619
298.2245743
298.1872865
298.0702283
298.1453322
323.7982522
324.9987454
323.7982522
324.5122266
298.3100394
327.4843843
298.321474
324.9550172
324.3839118
328.5602862
323.1582969
323.1582969
335.3187419
360.4995604
297.9999895
297.9999941
297.9998369
297.9999894
298.0001371
297.9999301
297.9998317
298.0001481
298.0001481
298.0001177
298.0006929
298.0005006
297.9999998
298.0001604
298.0008662
298.000677
298.000094
298.000677
298.00085
298.0011459
298.0035344
298.0034089
297.9998982
298.0035344
298.0028471
298.3943208
298.273762
298.0656285
298.0911205
298.273762
298.0655509
298.2795473
298.0952958
298.075187
298.1814723
298.2447098
298.1791143
333.7649953
333.7649953
322.4539677
333.0171514
322.1330104
332.555183
322.1330104
327.3259162
328.9934953
326.4876945
327.3259162
328.9934953
298.2447098
334.8561747
357.4423046
336.4705806
298.0006315
298.000023
298.0000305
297.9998977
297.9999479
297.9999818
297.9999879
297.9999385
297.999985
297.9999975
298.0002023
298.000006
297.9999975
298.000006
298.0004469
298.0006851
298.0003927
298.0161788
298.046733
298.0003927
298.0763507
298.0768705
298.0004972
298.0001279
298.0005532
298.0004972
298.0533527
298.001473
298.0000554
298.0014366
298.0022255
298.0000199
298.001469
298.1251477
298.1223858
298.1442567
298.075526
298.0977083
298.0763507
298.2723302
298.124793
298.1699273
329.7482795
298.124793
298.2245302
298.0703737
298.2349042
298.1955898
298.0533527
302.338461
298.3775625
298.1863834
324.8420077
327.7282795
339.8996753
298.2741481
298.3130739
333.2352045
331.0674525
339.6851104
329.0316199
331.465486
331.465486
324.8420077
344.7157259
337.9931902
337.9931902
331.9559898
302.338461
298.0003882
298.0008907
298.0008907
297.9999485
298.001752
298.0003882
298.0051268
298.001752
298.001469
298.002468
298.000216
298.0317931
298.0015254
298.1711918
298.1644482
298.0038157
298.1037619
298.0057936
298.0018932
298.0015932
298.0057936
298.001469
298.0319726
298.0763749
298.000216
298.0704788
298.0763749
298.0317931
298.2590325
298.2590325
301.2973884
298.3225709
298.1037619
298.0763749
298.0704788
298.3245882
298.1527092
331.9559898
359.4976693
328.3557865
341.5114423
331.5113055
298.127746
326.1107678
298.3102536
328.2988531
335.2838763
328.7601505
328.7601505
340.6939763
331.9559898
298.0000328
298.0078044
298.0000199
297.9998712
297.9999917
298.0000045
297.9998712
298.0000045
297.9999922
298.0000773
298.0001727
298.0002038
298.0005532
298.0134678
298.0004323
298.0015254
298.0030972
298.0007054
298.0030972
298.0007054
298.0002472
298.0389003
298.0001983
298.0389003
298.0076087
298.0145582
298.0739962
298.0076087
298.1042317
333.3418047
298.2268098
298.2268098
298.1361984
298.1391792
298.1303006
326.6112635
298.2207697
298.0578732
298.0768705
322.9215615
298.0391073
298.142229
298.0884223
333.3418047
338.8200397
336.7439391
333.9533092
334.2341033
322.9215615
326.6112635
298.42575
346.0444892
298.1140484
324.5780057
331.9559898
338.6444435
328.8258072
338.8200397
329.7482795
341.6981953
331.9559898
337.9931902
340.1025994
340.7858818
339.012676
342.3722663
331.5113055
298.0005535
298.0003084
297.9999946
298.0010744
298.0006357
298.0000854
298.0004089
298.0002459
298.0000942
298.0000022
298.0002302
298.0001323
297.9999955
298.0002023
298.0004076
298.0002023
298.0000569
298.0000569
298.0002023
298.0000117
297.9999955
298.2100282
298.0003084
298.0004261
298.0004089
298.0002023
298.0010489
298.0479633
298.0004261
298.0012832
298.153318
298.0008546
298.0012128
298.0007
298.0003972
298.0064018
298.0003972
298.0479633
298.1164955
298.062981
298.2968515
298.0876844
298.1164955
298.2721107
298.2947437
298.4084168
298.2042644
298.2721107
298.1019408
298.2925541
298.1726753
298.1703566
298.1744051
326.4624172
319.401118
329.7482795
351.3886483
326.4531535
326.4531535
327.0289831
329.7482795
333.6393077
326.4531535
329.7482795
327.4524477
327.2572015
339.012676
336.8108984
326.4624172
339.9353744
298.1744051
342.8069088
338.2128525
328.4601647
297.9999761
297.9999688
298.0000854
298.0001709
298.0000078
298.0000029
297.9999986
297.9998474
297.9999375
297.9999375
297.999809
298.0002606
298.0690285
298.0008203
298.0008203
298.0008203
298.0055702
298.0006123
298.0055702
298.001361
298.0002885
298.0008383
298.0007
298.0006954
298.0747478
298.3223246
298.1057644
298.2213341
298.0690285
298.3223246
335.8871569
298.077894
298.2305645
298.2665452
298.0968939
298.1288612
298.2305645
298.2643957
298.1830385
333.9499845
324.5395391
339.8349741
329.1495816
335.8912349
298.438958
329.820995
298.2305645
333.7015077
339.9353744
334.5788751
334.0040473
336.2198194
298.000034
297.9999625
297.9999432
297.9999802
298.0003972
297.9999765
297.9999741
298.0041142
298.0001776
297.9999923
298.0008907
298.0001776
297.9999838
298.0006954
298.000696
298.0003729
298.0003138
298.0003196
298.0064018
298.0005429
298.0037366
298.0604645
298.0001776
298.0022255
298.0008907
298.0001776
298.0597572
298.1053463
298.1033869
298.2389093
298.0908643
318.4811567
298.2160125
298.037703
298.095293
298.2160125
298.1999095
298.1822972
298.0604645
341.4306039
318.4811567
342.2251634
325.5537446
332.6075915
320.3786023
332.6075915
298.2160125
322.1872754
335.6528226
301.2973884
322.1872754
359.402418
333.9499845
334.4111172
328.4601647
343.5251642
333.7982276
404.1894656
352.1002549
986.2803014
342.5253658
429.2162868
556.1513869
403.785386
528.526343
429.2162868
373.2208796
373.4653097
385.0312285
381.6711392
360.0967271
514.2976027
403.785386
339.0530961
373.4653097
367.6417546
339.0530961
359.7990659
360.9673979
1252.724726
514.2976027
339.9763378
359.7990659
1287.061061
1296.434716
1247.766442
1274.319858
1262.279327
1262.279327
1320.722083
1314.342152
1255.80264
1254.96141
1305.086682
1318.225816
1321.925782
1300.70879
1304.300094
1278.049383
434.3423155
1279.820178
934.7099644
1313.246137
840.135634
1323.40128
1282.408658
1322.051661
961.8292006
1236.665138
1262.048716
384.2766695
390.0459213
355.1047618
374.3143364
421.6101705
383.736294
348.773481
374.3143364
421.6101705
421.0534309
391.242691
384.1126123
427.222831
391.242691
384.1126123
523.3468881
1300.092864
1251.043299
1287.480823
1270.741375
1251.06415
1233.939868
1222.881546
1222.881546
1255.80264
1268.770531
1261.359491
1255.505685
1263.431842
1301.737197
1305.764933
1233.973772
500.4866347
622.096644
355.2533196
403.846161
381.1611711
356.4690357
388.9943459
1234.255915
381.1611711
388.9943459
376.6664849
340.3458454
1237.498547
433.3290442
485.7068115
350.596994
373.4328842
414.3069656
373.4328842
347.7908622
1233.973772
1264.059145
1234.255915
1234.211679
1209.272162
1243.328469
433.3290442
1243.328469
1290.409342
1247.456401
1265.37474
1265.37474
485.7068115
1247.520729
1274.566147
1316.081781
384.2766695
408.5108467
381.0455663
340.7631492
423.4155717
346.4604613
1270.206951
398.8723405
381.7266141
385.0312285
354.8381638
398.8723405
351.8904441
1074.810874
373.8618373
329.8208669
398.8723405
397.7637585
385.0090748
385.0312285
392.1159478
383.2063882
398.0511439
398.0511439
392.1159478
392.1159478
424.1534558
1266.793512
1314.342152
1270.206951
1274.023811
423.4155717
1074.810874
1314.342152
1246.01676
1074.810874
749.1188144
1246.01676
1250.222679
1246.01676
1245.549764
1301.159608
399.3824539
1261.885885
373.8618373
334.3599001
965.1529431
390.4946015
334.3599001
381.5042551
385.0906019
373.8618373
349.4821481
1002.695036
381.5042551
398.0511439
357.8575126
1269.860846
368.2490205
335.3187419
939.1864602
332.301474
368.2490205
398.0511439
399.8602444
517.7571009
360.4995604
1219.844598
1253.975769
1229.849729
1253.975769
1229.849729
1278.277963
1233.740216
953.9446098
1311.214464
1220.898767
1220.898767
1284.399312
1284.399312
1280.565716
1219.844598
1311.838194
385.534061
376.0240143
357.4423046
370.1539104
372.1956124
625.0871351
370.1539104
341.4014295
362.8403197
377.1227174
377.1227174
393.9752879
381.7266141
377.1227174
393.9752879
1293.224171
1247.520729
1247.520729
1277.941696
1266.793512
1291.210967
372.1956124
625.0871351
1291.704874
1262.020238
1277.941696
1253.435579
1246.062862
1293.212096
1246.062862
1293.212096
1255.518042
1247.189261
1265.318354
1298.898222
434.3423155
333.0887277
346.0444892
499.3320093
961.8292006
359.7990659
404.2449381
544.202074
499.3320093
392.7921538
356.8212354
342.5290203
1238.201709
362.333007
469.8987818
361.529818
392.5898726
1045.107386
398.2413916
544.202074
479.0210929
354.5610954
421.2022143
551.508668
469.8987818
389.6461245
389.6461245
385.9969739
373.9333261
367.6442349
389.6461245
419.0806808
563.8048216
1279.766434
1236.665138
853.426727
1252.424822
1256.889197
1240.543189
1287.118841
1280.24513
1252.424822
1045.107386
1283.551232
1279.786324
1261.213796
1306.358446
1284.798761
1306.848975
479.0210929
1323.187245
1284.798761
442.1606713
1319.331237
1292.054825
982.7478362
1323.602055
964.1270768
1324.618033
1327.993204
1322.747664
1345.206568
563.8048216
454.9792983
365.981604
389.1035643
374.6912632
357.5422738
389.1035643
580.9809054
340.6939763
428.8724213
367.6442349
944.1933467
427.752776
515.0514156
1313.545402
1300.14206
1306.53799
1306.53799
518.9244969
1345.522213
1298.880654
1291.056093
1338.386636
1330.573326
1274.777182
580.9809054
1307.024122
1304.026033
1264.455343
532.3583794
1299.713924
1278.107714
1267.845616
1326.809055
1278.107714
515.0514156
366.7414503
373.9333261
346.510456
418.1433555
382.6645655
346.510456
547.177794
547.177794
382.6645655
354.4379367
334.8162763
983.634197
388.6778829
377.9324335
377.9324335
1290.457823
1221.054479
1295.671067
1261.825758
1290.457823
1260.824757
1305.172583
1261.825758
1207.06114
1307.822224
1258.061735
1302.37642
1207.06114
1325.788596
1252.424822
806.2412539
1316.477519
1252.724726
1300.092864
1336.473872
1287.480823
1251.043299
463.0368126
420.8220739
351.3886483
399.3824539
374.8563881
344.6716861
399.866734
399.866734
389.485433
433.4245167
425.537538
356.5592397
391.1764736
333.6393077
645.8296851
379.1343066
413.4095323
391.1764736
438.0531317
1273.265862
355.1833797
352.2361299
1273.265862
438.0531317
379.1343066
1234.131285
385.9969739
527.0399834
361.7572851
1299.552779
1253.513139
1255.009514
1277.292601
1255.009514
1292.464874
1257.915035
848.4836489
1298.8754
1260.669859
1299.378111
1238.912337
1260.669859
1288.776657
1282.580735
1316.03601
1331.282148
527.0399834
1243.450719
399.8602444
366.6156163
433.4245167
584.9988699
376.2522622
339.8349741
1013.493425
365.1899236
558.1932216
359.402418
1042.816886
339.9353744
365.1899236
430.5356817
1042.816886
370.6149028
336.0132278
478.2957708
478.2957708
604.2300671
1248.246375
1264.724377
1274.812479
1182.526954
1274.812479
1182.526954
1275.973159
1042.816886
1226.806323
1238.912337
1227.644746
1226.806323
604.2300671
900.5073171
361.7572851
359.2650822
341.4306039
397.5660528
359.2650822
325.5537446
885.0673048
448.0674625
350.852437
347.0063145
372.7917276
395.8432778
563.8048216
359.4976693
342.7884136
365.981604
1257.783194
1236.755713
900.5073171
1311.895459
1293.521733
1309.089569
885.0673048
448.0674625
1212.680591
1293.521733
406.9753512
1211.177847
1313.395849
1254.814364
1330.604347
454.9792983
1325.585625
1211.177847
1289.054317
1259.86601
383.2063882
)


// ************************************************************************* //
