/*--------------------------------*- C++ -*----------------------------------*\
  =========                 |
  \\      /  F ield         | OpenFOAM: The Open Source CFD Toolbox
   \\    /   O peration     | Website:  https://openfoam.org
    \\  /    A nd           | Version:  7
     \\/     M anipulation  |
\*---------------------------------------------------------------------------*/
FoamFile
{
    version     2.0;
    format      ascii;
    class       scalarField;
    location    "2/lagrangian/coalCloud1";
    object      neighbourMax;
}
// * * * * * * * * * * * * * * * * * * * * * * * * * * * * * * * * * * * * * //


2000
(
298.0000604
298.0000026
298.000269
298.000269
297.9999971
298.000269
298.0003668
298.0002636
297.9999998
298.0024217
298.0017401
298.0153813
298.0003668
298.0015532
298.0001716
298.0153813
298.0153813
298.0153813
298.0015532
298.0002636
298.0001716
298.002435
298.0015968
298.0015968
298.0015532
298.0000291
298.0000045
298.0000045
298.0000202
297.9999945
298.0002603
297.9999992
298.0000758
298.0002536
298.0003668
298.0002624
298.0000033
298.0067435
298.0065776
298.0015532
298.0000322
298.0000342
298.0068938
298.0017401
298.0000095
298.00025
298.0002878
298.0000202
298.0000052
298.0002536
298.0002603
298.0002113
298.0003532
298.0003668
298.0002624
298.0000038
298.0067435
298.0017401
298.0002624
298.0001735
298.008151
298.0067435
298.0015077
298.008151
298.0068938
298.0070714
298.0005535
298.0583183
298.0019471
298.0922515
298.0171887
298.0020333
298.1233859
298.0880733
298.0005252
298.1821321
298.019495
298.086051
298.0597664
298.0005535
298.1819915
298.0006315
298.0202605
298.0202605
298.0012388
298.0024711
298.0202605
298.0008319
298.0024217
298.0024064
298.0023896
298.0000678
298.0000123
298.0000096
298.0000006
297.9999967
298.000004
297.9999948
298.0130297
298.0202605
298.0124729
298.0130297
298.0124729
298.0023896
298.0023899
298.0000537
298.0000023
297.9999931
297.9999961
298.019495
298.0129741
298.0216386
298.0130297
298.0134678
298.0124729
298.0130297
298.0180396
298.0123933
298.0001105
298.0000847
298.0000564
298.0000304
298.0000564
298.0000729
298.0000415
300.2383829
298.0393257
298.7762564
300.2383829
298.1064217
298.0123933
298.0180396
298.0010679
298.0008672
298.0291054
298.0000729
298.0291054
298.000004
298.0000045
298.000004
298.0000045
298.000004
298.0000045
298.0000086
298.0000026
298.0001381
298.0000086
298.0000023
298.0000019
298.0000028
297.9999983
297.9999993
297.9999944
297.9999834
298.0002909
298.0000095
298.0000262
298.0001743
298.0000086
298.0000202
298.0001381
298.0000023
298.0000026
298.0000086
297.9999961
298.0000028
298.0001196
298.0001743
298.0001196
298.0905838
298.0001797
298.0000202
298.0003155
298.0006693
298.0002878
298.0001381
298.0006693
297.9999963
298.0000031
298.0583183
298.2021698
298.0922515
298.0004278
298.0562394
298.1731166
298.1373902
298.1560837
298.0922515
298.0003155
298.1373902
298.0175661
298.01534
298.0571978
298.0001521
297.9999993
298.0000041
298.0000395
298.0016999
298.0011742
298.0000332
298.0010783
298.0016999
298.0016999
298.0016999
297.9999974
298.0001904
298.0013043
298.0016999
298.0012612
298.0001904
298.0013043
298.0033562
298.0049463
298.0049463
298.0268585
298.0000134
298.0000135
298.0011742
298.0019125
297.9999992
298.0000655
298.0010586
298.0000332
298.0000655
298.0010407
298.0001716
298.0002334
298.0012579
298.0003918
298.001284
298.0002568
298.0018388
298.0268585
298.003452
298.0000003
298.0000135
298.0000432
298.0000134
298.0010542
298.0000701
298.0001079
298.0000432
298.0001387
298.000004
298.0001573
298.0010394
298.0000341
298.0002568
298.0003918
298.0012579
298.0004374
298.001284
298.001284
298.0004915
298.0004915
298.0006275
298.0002314
298.0314772
298.0006275
298.0314772
298.0786641
298.0007577
298.0314772
298.0314772
298.0013289
298.0180881
298.0011391
298.0000103
298.0005541
298.2112749
298.0004374
298.0451929
298.0019125
298.0018045
298.0010783
298.0097999
298.0097999
298.0018045
298.0097999
298.0097999
298.0012612
298.003733
298.003733
298.0002941
298.003733
298.003733
298.0000696
298.0033562
298.0002563
298.0000856
298.0019125
298.0010586
298.0019125
298.0010394
298.001596
298.0097999
298.003733
298.0002941
298.000721
298.000335
298.0002941
298.0009355
298.0010542
298.0010542
298.0008774
298.0009235
298.0010394
298.000243
298.001596
298.0000713
298.0000696
298.0001573
298.000243
298.102915
298.0002941
298.0528131
298.0009355
298.1595983
298.1595983
298.0007372
298.0007372
298.0612066
298.2913155
298.0009917
298.0612066
298.0009917
298.2913155
298.0487142
298.0528131
298.0002606
298.3380357
297.9999994
298.0000016
297.9999939
298.0000016
298.0000092
297.9999891
298.0010835
298.0000488
298.0003698
298.0181902
298.0017651
298.0016572
298.0181902
298.0016572
298.0016572
297.9999994
297.9999974
298
297.9999841
297.9999994
298
298.0000135
298.0003523
298.0017651
298.0013656
298.0017651
298.0019125
298.0017651
298.0019125
298.0019125
298.0001604
298.0000004
298.0000004
298
297.9999786
298.00085
298.0004212
298.0006929
298.0001177
298.0017651
298.0004212
298.0011742
298.0017651
298.0017651
298.0005006
298.0001371
298.0001371
298.000094
298.0911205
298.000677
298.00085
298.0952958
298.075187
298.0035344
298.1030394
298.0034089
298.0006929
298.1595983
298.0007176
298.0001418
298.0015326
298.0000368
298.0000105
298.0000118
298.0000368
298.0013171
298.000009
298.0000083
297.9999957
298.0000509
298.0000083
298.0013171
298.0000464
297.9999957
297.9999957
298.0003621
298.0000035
298.0015224
298.0000509
298.0003691
298.0003621
298.0001031
298.0007409
298.0066869
298.0015968
298.0000342
298.0015077
298.0049463
298.0000177
298.0000126
298.000009
298.0013171
298.0000059
298.000009
298.0000079
298.0000464
298.0000038
297.9999969
298.0000729
298.0001031
298.0003668
298.0003668
298.0066869
298.0000538
298.0000305
298.0000079
298.0000368
298.0007099
298.0000177
298.0003927
298.000149
298.0000912
298.0000073
298.0004972
298.0000554
298.000102
298.0000729
298.000006
298.000102
298.0004469
298.000126
298.0024911
298.0017005
298.0016371
298.0160936
298.1819915
298.0006851
298.0003927
298.0161788
298.0006851
298.0763507
298.0016662
298.0005532
298.0533527
298.0016662
298.001473
298.0014366
298.0024911
298.002031
298.1593909
298.0002753
297.9999893
298.0003691
297.9999974
298.0003613
298.0016371
298.0003691
298.0003688
298.0035047
298.0034562
298.0034562
298.001523
298.0144149
298.0144149
298.001523
298.0002832
298.0003579
298.0007884
298.0000156
298.0003765
298.0024074
298.0016371
298.0053817
298.0035047
298.0035047
298.001523
298.0015224
298.0127531
297.9999785
298.002031
298.0053817
298.0024074
298.002031
299.4608924
298.0053817
298.0020494
298.0030387
298.0020494
298.0319726
298.0030387
298.0080112
298.0134674
298.0134674
298.002602
299.4608924
298.1351341
298.0098661
298.0319726
299.0571087
298.0704788
299.0571087
299.8150331
298.0130862
298.0144149
298.0115859
298.0130862
298.0056426
298.0056426
298.0115859
298.0027149
298.0115859
298.0027149
298.0186822
298.0007409
298.0024711
298.0202605
298.0013252
298.0014936
298.0013656
298.001835
298.0130862
298.001835
298.0048183
298.0013656
298.0115859
298.0193582
298.0013079
298.0013215
298.0129741
298.0186822
298.0014936
298.0013656
298.0080112
298.0013079
298.001835
298.0013215
298.0013079
298.0186822
298.0216386
298.0068938
298.0374512
298.0186822
298.0323584
299.8150331
298.0002472
298.0024911
298.0030972
298.0007054
298.0005532
298.0374512
298.0193582
298.019495
298.0389003
298.0216386
298.7762564
298.7762564
298.0127531
298.1711918
298.7762564
298.0018388
298.003452
298.0268585
298.0033974
298.0049463
298.0016187
298.0033974
298.0268585
298.0000368
298.0000022
298.0015647
298.0016187
298.0033974
298.0033974
297.9999979
298.0000493
298.0000032
298.0022303
298.0022083
297.9999979
298.0002653
298.0022568
298.0002653
298.0022568
298.0015783
298.0015448
298.003452
298.0033562
298.0000692
298.0015628
298.0018388
298.0000368
298.0000572
298.0015647
298.003452
298.0031956
298.0000912
298.0000493
298.0021954
298.0022303
298.0022303
298.0021954
298.0002877
298.0001092
298.0021642
298.0023603
298.0004003
298.003452
298.0002907
298.001284
298.0010744
298.0015448
298.0015647
298.003452
298.0003048
298.0002023
298.0004076
298.0002363
298.0002363
298.0021642
298.0160936
298.0023603
298.2112749
298.0015448
298.0322898
298.0747478
298.2100497
298.1536911
298.0006123
298.2717639
298.0010489
298.1530348
298.153318
298.0703737
298.0010489
298.1530348
298.0857244
298.0022255
298.1530348
298.084036
299.7198586
299.7198586
298.0021642
298.0002644
298.000045
298.0002501
298.0009355
298.0000642
298.0032681
298.0000417
298.0000417
298.0000008
298.0022083
298.0009597
298.0000044
298.0022083
298.0010043
298.0022303
298.0044214
298.0022083
298.0044214
298.0032681
298.0001227
298.0000403
298.0000403
298.0031956
298.0000403
298.0022083
298.0000015
298.0000015
298.0021802
298.0021761
298.0023603
298.0021761
298.0032681
298.0000081
298.0000403
298.0006407
298.0000166
298.0000142
298.0002885
298.0021802
298.0000087
298.0000057
298.0009844
298.0022106
298.0006273
298.3380357
298.3380357
298.0690285
298.0009664
298.0137682
298.0001709
298.0056754
298.0137682
298.001361
298.0042995
298.0042995
298.000696
298.0841678
298.0061901
298.0023603
298.0061101
298.0022568
298.0061901
298.0061101
298.0003164
298.0001377
298.0008638
298.0000118
298.0002877
298.0008638
298.0002832
298.0002753
298.0008638
298.0002631
298.0061901
298.0061901
298.0061901
298.0022568
298.0001542
298.0058481
298.013089
298.0186209
298.0125743
298.0001377
298.013089
298.013089
298.0002832
298.0125743
298.0002832
298.0061901
298.0001577
298.0041142
298.0007743
298.0000774
298.0058481
298.0186209
298.013089
298.0186209
298.0125743
298.0134674
298.0127531
298.0006954
298.0058481
298.0021642
298.0003729
298.0049857
298.037703
299.7198586
298.0124061
298.0160936
298.0134674
298.0002013
298.1234204
298.2100282
298.2705795
298.0027295
298.2336885
298.1766487
298.249967
298.0740286
298.1821321
298.1339499
298.1637958
298.1637958
298.1821321
299.6142757
298.3731428
298.046733
298.2100282
344.036116
343.8160065
333.7173997
335.1898945
332.4734163
344.036116
331.0833751
328.3701308
346.8680739
331.0833751
328.3701308
332.7681037
327.7282795
329.6650965
331.9180129
339.8996753
330.2871962
330.2871962
528.526343
352.1002549
367.4204415
344.036116
620.422359
360.0967271
339.0530961
556.1513869
346.8680739
381.6711392
385.0312285
381.6711392
330.3448138
339.0530961
360.9673979
360.9673979
356.8212354
463.0368126
622.096644
1280.915432
622.096644
1335.978893
1258.810677
1339.75453
620.422359
1279.820178
1254.96141
934.7099644
1318.225816
1262.048716
1320.398027
1279.820178
961.8292006
1236.665138
300.2383829
298.1064217
298.0739962
298.0018571
298.2610887
298.2705795
298.0889327
298.1660917
298.2021698
298.1542041
298.4015239
330.879598
329.5768611
326.0919811
330.9271747
336.6650289
329.5768611
348.773481
337.3829347
298.2489514
323.7116074
336.3493928
325.440374
344.2487866
334.1158865
344.2487866
334.5718399
334.8773755
421.6101705
355.1047618
374.3143364
367.6417546
427.222831
383.736294
421.0534309
427.222831
391.242691
421.0534309
523.3468881
500.4866347
355.2533196
1251.043299
1298.459832
1302.23238
1258.730535
1233.939868
1251.06415
1261.359491
1263.431842
1302.503729
1307.872448
1301.737197
1233.973772
298.2024928
298.1731166
298.2336885
300.1470686
298.2336885
298.1731166
298.1580446
298.2537294
298.1373902
298.3943208
298.0450679
334.8773755
298.4015239
343.8137675
352.1002549
299.6002531
327.3736805
298.3871632
340.3458454
326.9875684
298.3943208
350.596994
298.3047443
343.8160065
298.3047443
347.7908622
356.4690357
403.846161
352.1002549
381.1611711
388.9943459
334.8379847
433.3290442
332.4734163
347.7908622
373.4328842
1234.211679
1298.529243
1280.915432
1264.059145
1280.514165
388.9943459
1280.915432
1237.498547
1247.456401
1247.456401
350.596994
986.2803014
1294.934916
1283.733776
1320.783253
1332.932035
1322.346708
1320.783253
1332.932035
1311.847619
1279.182383
1293.224171
1305.246969
1322.346708
429.2162868
298.0740286
298.1029826
298.1168699
298.1935952
333.7173997
298.2057713
298.001185
334.9688391
298.1505595
298.2250188
298.0752693
298.0786641
298.0989619
298.2356425
298.0006571
298.2250188
298.2112749
298.0451929
334.9111107
333.2995079
327.3259162
331.4671037
351.8904441
333.7173997
298.2367985
334.8825103
323.5854618
326.4634858
351.8904441
336.1653633
336.4705806
329.793305
329.793305
334.8825103
331.2718929
334.8683184
334.8683184
330.12295
358.8561017
358.8561017
381.7266141
334.9688391
346.4604613
408.5108467
423.4155717
423.4155717
354.8381638
354.8381638
1247.244776
334.9688391
397.7637585
398.0511439
591.5203232
392.1159478
684.900914
398.0511439
463.0368126
399.3824539
337.1410429
1266.793512
1317.852849
1294.196735
1271.756954
1274.023811
1274.078932
1274.023811
1291.210449
1250.222679
1321.925782
737.966988
737.966988
1258.640009
1301.159608
1291.720705
1308.199087
1262.962112
1293.729259
298.3100394
298.1791143
298.1352992
324.3839118
298.321474
298.1352992
298.2913155
323.1582969
298.2913155
298.2100991
298.1793567
298.3380357
298.3380357
334.3599001
334.8561747
334.9688391
349.4821481
327.4843843
357.8575126
324.9550172
324.3839118
328.5602862
323.1582969
332.301474
328.5602862
401.9853036
390.4946015
385.0906019
389.949213
336.1653633
368.2490205
336.6569207
939.1864602
368.2490205
327.2843054
1002.695036
1265.318354
1278.277963
1233.740216
1308.744149
1269.860846
1269.860846
1269.860846
1254.866441
398.0511439
1219.844598
424.1534558
943.0513753
1292.284913
1259.86601
298.0911205
298.0463248
298.0656285
298.2057713
333.0171514
298.273762
298.2795473
332.555183
298.1875613
333.2995079
298.1030394
298.1791143
298.2447098
298.2057713
298.273762
333.0171514
322.4539677
322.1330104
334.1012828
332.555183
333.2995079
339.3559132
298.2447098
326.4876945
334.9578939
414.3069656
332.864579
376.0240143
357.4423046
376.0240143
372.1956124
362.8403197
370.1539104
340.7631492
423.5401481
393.9752879
401.9853036
1303.800171
1303.800171
1291.210967
1266.793512
1291.210967
1262.020238
1256.850995
924.8211477
1291.704874
1262.020238
1253.435579
1267.868048
965.1529431
1267.868048
1296.779378
1311.392821
339.369341
298.1442567
298.2741481
298.1819915
298.1699273
298.1361984
298.124793
298.0763507
298.2717639
298.0703737
341.1288516
298.2349042
298.3630203
298.1955898
302.338461
331.9180129
339.369341
342.5290203
334.4873362
339.369341
341.1288516
344.6308378
331.0674525
339.6851104
344.6308378
331.6320583
341.8383244
338.8200397
324.8420077
341.8383244
338.2128525
298.2349042
338.6444435
340.1025994
356.8212354
404.2449381
392.7921538
356.8212354
392.5898726
544.202074
341.6981953
398.2413916
551.508668
361.529818
398.2413916
344.7157259
469.8987818
479.0210929
354.5610954
442.1606713
442.1606713
373.9333261
419.0806808
1240.543189
1279.766434
1238.201709
499.3320093
1295.596711
1272.105816
1272.105816
547.177794
1272.105816
1267.263966
1267.263966
1330.30637
421.2022143
1330.30637
1283.123511
563.8048216
298.1711918
301.2973884
298.127746
298.1644482
298.3225709
298.1251477
299.4608924
298.5993055
299.4608924
299.0571087
298.0763749
298.1527092
298.0323584
298.2666668
359.4976693
342.3722663
328.6169648
341.5114423
331.5113055
328.6169648
335.2838763
328.7601505
328.2988531
342.8623991
328.7601505
337.6274433
342.8623991
333.245586
518.9244969
374.6912632
342.3722663
389.1035643
357.5422738
357.5422738
367.6442349
342.8623991
340.6939763
532.3583794
1313.545402
1336.217132
1306.53799
1345.522213
630.7586935
1330.325731
630.7586935
1298.880654
1339.229667
1274.777182
944.1933467
1307.024122
1264.455343
298.0323584
299.8150331
298.1391792
298.2268098
298.0768705
298.166606
298.0578732
298.0389003
298.0578732
298.0768705
298.2207697
298.0947012
298.42575
298.187885
298.7762564
337.1332672
333.9533092
344.8740091
334.2341033
344.8740091
326.6112635
345.8826361
322.9215615
328.8258072
322.9215615
327.0507284
327.0507284
324.5780057
373.9333261
515.0514156
366.7414503
346.510456
347.2311931
382.6645655
382.6645655
547.177794
555.5537265
388.6778829
354.4379367
983.634197
346.0444892
354.4379367
377.9324335
1221.054479
469.8987818
1305.172583
1214.332747
1261.825758
1306.496052
1285.195062
1252.724726
1300.092864
555.5537265
1316.477519
1323.602055
1345.206568
1302.37642
1324.171915
1316.242199
1306.358446
1299.713924
1335.210101
1333.064936
1305.172583
1310.950915
1336.217132
1338.386636
298.2968515
298.2968515
298.2112749
334.4873362
298.2968515
298.2046111
298.4084168
298.2046111
298.2046111
298.2721107
298.2947437
298.1703566
298.2042644
298.2925541
336.8108984
298.2947437
298.3775625
298.0160936
298.1053463
298.084036
298.1703566
335.638163
326.4531535
331.1071934
326.4531535
334.4873362
356.5592397
343.5251642
340.405082
336.8108984
326.4624172
340.405082
355.1833797
342.8069088
298.2389093
329.1638641
342.2251634
374.8563881
383.2063882
339.012676
362.333007
356.5592397
389.485433
1257.915035
391.1764736
645.8296851
379.1343066
341.1288516
413.4095323
1273.265862
352.2361299
438.0531317
359.096603
527.0399834
399.5333971
1277.292601
1311.392821
1253.513139
1255.009514
1262.17919
1280.24513
1311.218588
848.4836489
551.508668
1317.409124
1302.684784
1292.054825
1290.904505
1290.904505
1255.265276
527.0399834
1299.378111
1313.19659
1273.265862
298.1094424
298.1057644
298.2213341
335.8871569
298.1057644
298.2665452
298.1288612
298.1288612
298.2643957
298.2305645
298.1830385
336.6569207
336.6569207
327.2843054
329.820995
329.1495816
359.402418
340.405082
298.438958
339.9353744
334.5788751
336.0132278
341.537971
336.2198194
339.4429287
584.9988699
376.2522622
344.6716861
339.8349741
369.714571
1013.493425
365.1899236
430.5356817
1042.816886
342.8069088
370.6149028
337.2867392
478.2957708
604.2300671
584.9988699
1292.464874
1304.083669
1297.67895
1231.521724
1182.526954
1231.521724
1227.644746
1278.308392
1238.912337
1227.588123
337.2867392
1281.32496
298.2643957
298.1830385
298.121439
298.121439
298.121439
298.0908643
320.3786023
299.7198586
298.1822972
298.0604645
299.7198586
298.1822972
298.0604645
319.401118
334.4111172
331.8514458
342.2251634
331.8514458
333.7982276
331.8514458
334.1783044
342.7884136
322.1872754
335.6528226
334.1783044
298.2590325
342.6958507
397.5660528
341.4306039
527.0399834
359.2650822
885.0673048
372.7917276
350.852437
347.0063145
395.8432778
406.9753512
359.4976693
395.8432778
1257.783194
779.2937391
1309.089569
1266.272058
1212.680591
1219.87319
1014.658911
924.8089771
1254.814364
1327.535016
1289.054317
1336.217132
1302.572649
1293.422892
1317.257716
1335.473101
1316.53856
1313.395849
1325.770004
1287.061061
1346.123304
1322.714849
1346.123304
1317.88098
1357.304261
1347.29098
1345.854047
1308.501574
1347.29098
1332.888311
1308.501574
1305.086682
1352.144786
1352.144786
1339.75453
1329.72828
1332.734275
1339.75453
1304.300094
1305.189739
1334.072174
1333.789794
1325.392974
1321.979713
1331.275698
1346.123304
1341.434029
1319.523535
1320.783253
1331.275698
1345.854047
1338.734747
1317.88098
1357.304261
1357.304261
1357.304261
1332.932035
1352.144786
1351.432651
1332.888311
1320.398027
1332.734275
1352.144786
1331.663415
1351.432651
1334.072174
1333.789794
1332.38656
1332.38656
1331.663415
1321.979713
1258.873606
1300.092864
1337.753082
1346.229284
1310.090076
1309.018856
1288.436638
1310.724138
1302.23238
1310.108682
1310.108682
1304.287621
1317.618701
1317.618701
1317.002506
1317.002506
1330.629259
1310.724138
1310.724138
1307.952121
1309.018856
1309.018856
1302.23238
1309.018856
1317.88098
1282.871692
1310.108682
1310.108682
1317.618701
1317.618701
1314.94584
1318.462904
1318.462904
1317.215245
1318.462904
1308.502756
1317.215245
1311.847619
1308.502756
1331.275698
1283.952003
1280.514165
1297.025562
1283.952003
1297.025562
1338.956312
1301.849292
1338.956312
1338.956312
1341.434029
1308.038672
1338.386662
1311.847619
1308.502756
1325.770004
1291.25842
1264.059145
1301.849292
1279.182383
1346.123304
1338.956312
1338.956312
1336.790229
1338.956312
1319.343231
1300.663903
1338.386662
1338.386662
1338.542572
1341.434029
1329.19374
1317.852849
1329.19374
1321.925782
1338.734747
1298.637427
1274.810443
1332.228061
1322.026587
1317.633957
1294.798934
1303.221846
1308.744149
749.1188144
1311.326067
1303.221846
1308.744149
1320.622884
1320.622884
1311.326067
1302.81847
1301.994227
1308.199087
1315.040446
1332.547522
1324.625517
1338.734747
1329.19374
1332.228061
1299.183369
1299.183369
1332.228061
1322.026587
1321.828763
1320.622884
1303.221846
1302.81847
1311.326067
1302.81847
1315.040446
1311.326067
1302.81847
1306.204905
1278.366179
1298.898222
1298.898222
1311.838194
1284.917835
1321.828763
1321.828763
1315.891025
1329.849322
1311.838194
1314.034624
1323.530736
1329.849322
1311.214464
1323.530736
1337.855265
1323.530736
1311.214464
1332.547522
1327.853796
1337.855265
1288.367895
1307.45301
1306.204905
1276.350804
1285.624375
1284.917835
1329.849322
1311.214464
1321.828763
1323.530736
1319.048052
1311.214464
1332.547522
1337.855265
1337.855265
1288.367895
1329.849322
1319.343231
1338.386662
1316.812437
1292.19985
1312.797939
1312.797939
1312.07616
1277.941696
1307.348384
1327.338228
1298.986741
1303.197666
1306.204905
1298.898222
1303.197666
1341.434029
1308.038672
1308.038672
1307.902025
1312.797939
1312.797939
1308.251271
1327.338228
1312.07616
1312.797939
1312.07616
1329.19374
1308.29906
1308.251271
1312.502232
1308.29906
1308.29906
1312.502232
1298.898222
1312.502232
1296.763859
1262.962112
1330.629259
1333.789794
1333.789794
1325.392974
1289.598237
1326.860302
1346.929282
1346.929282
1283.551232
1279.786324
1317.596151
1326.860302
1297.540738
1353.331969
1309.828589
1317.596151
1310.950915
1331.383163
1358.703412
1309.828589
1319.331237
1339.322893
1324.171915
1336.702192
1339.818824
1339.322893
1323.187245
1330.573326
1336.702192
1341.205688
1341.205688
1304.071769
1331.383163
1326.860302
1330.629259
1304.071769
1319.184137
1331.383163
1326.860302
1353.331969
1358.703412
1353.331969
1331.383163
1319.331237
1358.703412
1345.206568
1339.818824
1339.146291
1345.206568
1342.05085
1342.05085
1339.818824
1339.322893
1332.896481
1330.935403
1353.073247
1339.146291
1342.05085
1341.205688
1358.703412
1341.205688
1355.576663
1355.956126
1346.499558
1345.765381
1346.499558
1368.116902
1366.179873
1339.229667
1317.388245
1349.351718
1349.351718
1314.903711
1315.378813
1357.006278
1357.006278
1366.915547
1366.915547
1368.116902
1366.179873
1368.116902
1368.116902
1368.116902
1353.073247
1353.073247
1368.116902
1368.116902
1339.229667
1314.903711
1330.935403
1341.977301
1341.977301
1355.956126
1366.915547
1341.977301
1304.184631
1278.26656
1324.171915
1290.457823
1332.628728
1312.327263
1325.788596
1352.483527
1329.795301
1336.473872
1336.176841
1336.473872
1344.435954
1325.788596
1329.795301
1346.897175
1332.628728
1301.64123
1332.628728
1305.172583
1341.977301
1301.64123
1324.171915
1325.788596
1301.64123
1336.176841
1316.195562
1336.473872
1334.039532
1346.897175
1336.176841
1338.542572
1346.897175
1338.542572
1338.542572
1346.897175
1346.229284
1344.435954
1321.979713
1323.165216
1299.552779
1293.706711
1309.434824
1262.17919
1323.165216
1320.771381
1304.083669
1315.442247
1313.572452
1317.409124
1317.409124
1320.771381
1320.771381
1302.684784
1323.405832
1336.839334
1329.90647
1328.245634
1331.282148
1336.839334
1344.272915
1336.839334
1302.011752
1299.378111
1330.604347
1290.504618
1315.863101
1323.165216
1323.165216
1315.442247
1314.705702
1303.967911
1315.442247
1314.705702
1329.90647
1305.074578
1306.890535
1329.90647
1305.074578
1331.282148
1336.839334
1335.473101
1333.064936
1344.272915
1344.272915
1315.863101
1332.547522
1308.473981
1296.078719
1303.950318
1307.45301
1304.083669
1303.950318
1302.572649
1302.572649
1297.67895
1284.062653
1276.999638
1278.137247
1278.308392
1276.999638
1289.392203
1287.108002
1291.221902
1315.863101
1317.257716
1303.950318
1307.45301
1303.950318
1302.572649
1304.083669
1302.572649
1290.988192
1284.062653
1278.308392
1290.988192
1289.392203
1289.392203
1317.257716
1317.555255
1315.580812
1317.555255
1257.783194
1324.711445
1313.395849
1311.895459
1286.073043
1333.436814
1286.073043
1313.395849
1278.343938
1276.771946
1337.762084
1336.105219
1289.054317
1325.585625
1317.887696
1315.863101
1317.555255
1317.887696
1335.473101
1321.349373
1321.349373
1331.337574
1313.395849
1344.272915
1333.436814
1358.003857
1333.436814
1325.585625
1337.762084
1358.003857
1358.003857
1355.956126
1358.003857
1308.473981
1309.434824
)


// ************************************************************************* //
