/*--------------------------------*- C++ -*----------------------------------*\
  =========                 |
  \\      /  F ield         | OpenFOAM: The Open Source CFD Toolbox
   \\    /   O peration     | Website:  https://openfoam.org
    \\  /    A nd           | Version:  7
     \\/     M anipulation  |
\*---------------------------------------------------------------------------*/
FoamFile
{
    version     2.0;
    format      ascii;
    class       labelField;
    location    "2/lagrangian/coalCloud1";
    object      origId;
}
// * * * * * * * * * * * * * * * * * * * * * * * * * * * * * * * * * * * * * //


2000
(
109
17
43
37
15
1
5
148
139
125
78
137
85
146
107
7
15
84
92
40
195
79
85
61
206
135
29
96
91
100
48
147
70
7
75
175
162
28
160
158
209
192
88
144
142
7
93
137
157
245
158
157
60
153
169
202
226
198
192
217
234
179
128
164
140
96
227
0
156
252
202
200
175
175
227
263
208
216
134
119
110
246
101
38
10
31
44
62
102
6
84
49
26
56
27
23
4
28
99
59
39
125
101
107
96
42
35
1
32
51
13
119
81
130
53
161
151
130
94
49
113
27
132
130
80
185
140
187
159
2
138
171
237
158
164
149
157
45
145
25
12
2
55
53
58
98
34
14
69
79
37
59
28
19
14
120
27
125
61
93
112
20
1
70
151
10
51
123
149
100
99
80
129
81
84
141
52
92
86
188
0
153
165
74
43
24
208
135
108
100
233
199
133
191
16
51
8
128
72
132
24
123
67
119
154
116
50
54
75
135
110
54
3
51
35
102
103
99
126
30
109
48
219
208
113
101
218
152
82
171
73
185
97
63
120
209
197
67
129
163
189
182
222
232
213
148
233
205
192
165
256
27
105
221
183
241
100
177
245
235
271
172
211
207
257
203
224
253
78
258
184
225
77
66
39
34
85
32
21
66
3
22
26
48
47
16
41
130
30
8
13
90
104
54
5
22
36
11
25
3
9
91
181
168
146
47
167
116
4
87
33
116
85
178
126
204
155
214
69
272
162
215
161
201
134
190
139
258
123
214
18
21
75
94
90
72
10
118
68
58
63
34
6
59
71
33
90
112
47
66
41
58
58
115
83
33
49
17
0
194
47
98
61
196
124
46
42
25
113
98
103
24
178
18
220
113
193
62
56
33
163
120
180
159
251
165
143
73
89
78
173
192
5
131
166
38
105
11
45
72
96
76
112
59
35
57
104
147
70
6
74
36
139
97
137
142
187
145
154
34
169
122
168
60
170
55
131
193
21
64
19
38
80
183
191
106
184
2
61
80
190
124
132
128
40
162
186
67
160
30
156
168
124
152
136
176
243
132
234
160
92
237
208
182
231
213
177
189
99
150
159
20
89
118
89
9
76
77
42
66
50
8
56
114
57
43
6
118
147
18
12
16
68
44
68
53
105
83
225
46
70
246
57
31
98
117
152
87
112
127
106
111
145
129
167
222
114
166
144
32
148
14
4
76
52
12
40
35
45
23
18
83
2
21
9
41
119
56
82
87
31
60
97
30
68
4
75
95
41
101
90
143
55
17
95
40
129
224
125
121
228
151
124
249
36
118
22
93
190
88
133
94
229
150
133
191
136
172
196
127
8
122
69
20
105
26
22
150
128
78
127
23
65
115
54
29
114
15
67
43
19
46
143
52
184
202
74
16
39
200
207
151
179
71
177
107
171
137
131
81
32
141
102
193
176
121
175
146
181
168
220
71
106
3
153
110
173
197
126
117
170
164
251
203
240
258
230
147
174
236
219
210
217
266
194
215
140
234
251
29
249
135
232
103
82
73
19
45
57
83
37
64
115
55
48
53
46
110
26
52
88
95
20
88
10
17
64
142
81
7
94
1
23
72
155
63
104
65
64
11
121
201
194
62
86
69
116
120
11
247
108
115
205
109
169
227
210
131
111
38
25
31
144
62
82
44
109
29
91
13
9
76
92
60
50
12
50
13
14
127
108
87
141
195
140
170
177
44
145
79
65
121
187
170
122
183
198
156
28
104
139
141
42
154
196
193
117
227
24
166
188
252
198
77
200
263
221
204
271
238
293
295
211
232
281
269
204
284
158
309
250
267
216
339
216
312
242
157
324
330
172
205
201
241
318
63
300
370
262
213
179
344
246
277
325
325
274
344
326
380
340
339
327
331
329
307
402
302
358
230
241
335
433
270
365
399
328
394
367
385
395
427
410
256
214
242
111
185
187
291
153
272
169
265
278
235
218
133
280
107
260
265
174
215
304
258
336
309
315
279
304
367
295
287
282
368
316
237
210
362
314
285
194
301
176
342
391
350
352
290
322
217
390
389
232
342
173
0
97
73
236
144
266
216
248
286
155
287
165
207
160
161
233
179
195
180
281
126
239
203
273
142
281
239
329
292
252
86
255
266
149
282
180
361
353
333
190
257
331
318
371
304
311
330
346
84
347
408
316
361
431
309
313
303
395
417
324
254
220
225
229
182
203
230
255
212
243
164
247
143
294
212
262
223
167
317
286
314
364
286
321
238
306
204
272
381
271
294
308
299
300
334
284
274
264
285
335
334
404
335
363
351
341
353
338
416
273
344
295
382
288
242
357
342
406
347
401
375
384
364
369
297
277
333
391
367
388
365
389
407
308
333
402
356
260
296
253
256
261
214
117
249
103
156
188
181
173
349
271
247
293
244
321
292
300
159
197
310
237
291
183
328
371
257
309
254
366
148
235
397
307
270
338
305
331
388
303
320
336
268
261
138
470
403
269
174
39
226
79
89
189
155
122
106
93
210
298
334
261
255
275
136
274
191
254
238
276
202
245
330
296
263
329
314
74
288
340
186
292
328
285
345
385
278
348
353
345
321
301
303
366
389
167
362
275
393
393
244
234
289
240
211
172
65
95
198
278
239
185
243
275
219
302
263
332
314
243
293
326
298
311
279
241
290
284
188
307
342
230
319
383
387
360
297
346
299
440
302
326
321
334
351
290
311
377
320
353
395
304
373
373
341
305
244
378
408
420
289
370
343
406
396
308
375
374
363
154
163
272
240
134
264
212
138
152
111
277
36
162
211
336
240
310
317
199
313
199
350
275
276
253
250
215
186
288
351
257
15
280
319
161
298
283
282
390
376
292
358
312
323
345
392
279
397
355
286
316
182
209
77
268
134
195
186
223
71
166
102
176
91
200
136
220
266
199
217
212
5
138
221
299
201
297
189
250
251
221
320
267
184
306
246
368
223
259
372
224
287
322
228
218
150
411
372
405
340
414
379
218
317
338
385
451
378
413
418
343
291
386
406
431
375
407
226
303
289
223
249
300
229
247
339
228
236
178
207
283
264
248
238
236
253
225
229
114
248
269
209
260
318
346
222
362
316
245
205
318
337
267
269
322
259
341
357
311
313
369
372
390
306
346
369
360
359
337
302
392
359
283
337
383
411
366
381
349
436
380
323
432
430
396
424
361
410
356
399
389
428
206
213
181
264
146
86
174
49
259
226
108
224
289
270
196
248
231
287
163
235
277
259
242
206
244
310
276
231
358
313
294
362
265
306
280
365
270
262
265
315
442
399
280
239
352
355
323
438
348
363
359
268
285
197
260
250
149
261
178
273
231
171
262
273
222
233
219
290
282
180
295
228
291
365
284
315
256
255
339
310
37
267
206
341
305
123
355
307
400
363
296
367
360
325
254
387
252
308
382
315
402
312
370
422
381
343
439
401
426
430
360
496
354
483
462
476
481
418
335
469
507
408
437
518
434
404
471
369
323
343
386
445
474
486
439
444
489
471
490
438
332
383
388
453
410
327
486
444
405
519
412
475
452
392
497
491
440
452
473
472
463
501
398
329
293
377
421
415
278
376
386
414
374
319
398
347
274
492
452
514
387
508
441
414
472
409
431
350
512
425
443
388
451
426
395
357
429
328
319
352
354
338
403
340
296
345
483
403
424
400
281
404
336
327
487
427
482
355
398
505
276
510
386
382
305
486
317
464
410
428
406
384
387
464
333
462
415
326
396
358
398
399
350
415
419
379
403
423
409
460
429
392
460
400
331
484
454
450
459
475
492
482
375
463
409
451
504
459
481
330
385
496
502
407
428
373
351
421
352
427
434
421
432
420
394
452
371
391
288
324
447
438
457
437
421
453
380
466
417
453
465
376
457
384
488
413
420
499
430
426
473
431
485
397
298
378
422
332
449
391
446
490
455
364
354
477
441
373
361
376
511
394
474
442
425
487
493
450
480
477
461
348
478
372
454
466
482
379
475
354
301
469
374
454
454
448
436
448
418
370
423
445
419
413
349
458
434
479
462
344
425
417
435
301
374
467
411
401
429
443
432
489
500
509
517
466
357
513
470
473
484
416
359
495
458
469
464
477
486
463
433
459
479
383
503
439
479
393
438
368
453
416
294
325
418
283
423
347
397
427
442
419
327
405
441
446
458
451
422
482
469
366
490
462
477
476
381
457
432
460
443
440
516
449
497
416
402
494
412
444
412
349
488
435
447
415
405
297
299
401
393
495
439
461
446
424
465
466
515
440
480
472
437
320
458
455
479
447
467
488
455
478
506
436
468
332
279
471
498
467
476
380
407
472
428
498
382
493
435
485
499
442
444
377
425
470
459
445
481
377
468
268
480
378
448
465
417
485
435
487
450
449
463
433
483
483
461
478
443
484
491
434
394
471
464
481
396
468
409
441
456
480
413
447
457
467
456
436
379
461
433
489
356
487
494
476
424
470
449
460
474
337
412
465
429
420
348
312
423
408
364
445
426
384
422
400
368
324
456
322
356
474
478
475
500
414
371
411
455
430
437
473
468
484
446
456
404
448
390
450
485
419
)


// ************************************************************************* //
