/*--------------------------------*- C++ -*----------------------------------*\
  =========                 |
  \\      /  F ield         | OpenFOAM: The Open Source CFD Toolbox
   \\    /   O peration     | Website:  https://openfoam.org
    \\  /    A nd           | Version:  7
     \\/     M anipulation  |
\*---------------------------------------------------------------------------*/
FoamFile
{
    version     2.0;
    format      ascii;
    class       labelField;
    location    "2/lagrangian/coalCloud1";
    object      origProcId;
}
// * * * * * * * * * * * * * * * * * * * * * * * * * * * * * * * * * * * * * //


2000
(
15
12
13
15
13
14
15
12
12
14
13
12
12
13
14
13
12
15
12
15
13
14
14
12
13
12
13
12
13
13
14
14
13
14
15
13
12
15
15
13
12
12
13
13
15
12
12
13
15
14
15
14
15
15
15
15
14
12
13
13
12
15
15
14
15
15
12
13
15
12
14
12
12
14
14
14
13
12
12
15
13
12
13
12
12
14
12
12
13
15
14
12
12
14
13
12
15
12
12
14
14
13
12
12
14
14
13
12
14
15
13
12
14
13
14
12
14
12
14
14
13
15
13
14
14
14
12
14
13
13
14
15
12
12
13
12
12
12
14
13
15
15
13
12
12
12
14
12
14
12
14
12
14
13
14
14
12
15
14
13
13
15
15
12
12
14
13
14
14
14
13
13
15
13
13
12
15
15
13
15
12
13
14
13
12
13
14
14
13
12
15
12
13
15
12
12
14
13
15
15
14
12
13
13
13
12
14
13
12
15
15
12
13
14
15
12
14
14
13
14
14
12
12
12
12
15
12
15
12
12
14
12
14
13
13
15
12
12
12
13
15
12
14
13
12
13
14
13
14
15
14
14
15
13
14
12
15
15
12
13
13
13
14
13
14
14
13
12
12
13
13
13
13
14
12
13
13
15
13
13
15
13
14
15
14
15
13
15
15
12
14
13
13
15
14
12
15
12
15
14
12
15
13
14
14
13
12
13
14
12
15
14
15
13
15
12
13
13
15
13
13
12
13
13
15
15
15
14
13
15
15
12
13
13
12
13
13
14
15
13
15
12
14
13
12
14
14
15
12
12
14
14
15
13
15
12
15
15
14
12
15
13
13
13
12
13
15
12
14
14
13
12
12
12
12
15
15
13
13
13
14
12
13
14
12
12
14
13
15
14
14
15
13
13
13
14
12
13
14
14
13
12
12
15
14
15
12
15
14
12
12
13
13
13
15
12
13
13
12
15
12
14
13
14
14
12
12
13
14
14
12
15
15
12
13
13
12
14
15
12
12
14
12
14
13
14
14
14
13
13
12
15
15
14
15
13
12
14
14
14
13
13
15
14
12
13
13
13
15
14
15
13
12
15
13
13
14
14
13
15
15
15
12
14
13
14
13
13
12
14
12
13
14
14
12
15
14
12
15
14
15
15
14
13
15
14
12
15
14
15
14
14
12
13
14
13
12
14
14
12
15
13
12
13
12
13
12
12
13
14
13
13
12
15
14
12
14
15
14
13
15
12
15
12
13
13
14
12
15
14
15
13
15
14
13
14
14
12
12
14
12
13
13
14
14
12
14
14
14
14
15
12
12
12
12
14
14
15
14
13
13
15
13
12
13
13
15
15
12
15
14
15
12
14
14
15
13
14
15
15
15
15
12
13
15
13
15
14
15
13
14
15
14
14
12
13
13
14
14
15
13
13
15
14
15
13
15
12
15
12
15
15
12
12
14
14
13
14
14
15
13
12
13
12
15
12
14
13
14
15
14
12
15
15
14
15
14
15
15
14
12
13
15
15
15
15
14
15
12
14
13
15
12
14
13
13
12
12
15
14
12
15
14
15
15
13
12
13
12
15
15
13
13
12
15
12
15
14
13
14
15
15
15
14
12
12
15
15
15
12
12
15
14
13
13
13
13
15
15
13
14
12
15
15
13
13
12
12
14
15
15
15
14
13
13
14
12
12
15
12
14
14
15
14
13
15
14
15
15
13
15
12
15
12
12
13
13
14
13
14
14
14
12
15
12
12
13
15
15
15
12
13
14
15
15
12
12
13
14
12
12
13
13
14
13
12
14
12
14
14
13
13
13
13
14
12
14
13
14
12
14
12
12
15
12
14
13
12
12
15
13
12
13
15
14
12
13
14
15
12
12
14
14
12
13
12
12
13
12
12
14
14
12
13
14
15
13
13
13
14
13
15
15
12
14
12
12
13
12
14
12
12
14
13
13
14
14
14
13
15
12
14
13
14
14
15
12
12
12
12
12
12
12
15
14
12
13
15
14
12
14
14
13
13
14
14
14
14
14
12
12
12
12
14
12
12
12
15
12
12
12
12
14
15
12
12
12
12
13
12
12
15
12
12
12
15
14
12
12
13
12
14
15
15
15
15
15
15
14
12
13
13
12
12
14
12
13
12
15
13
12
13
13
13
12
12
13
15
14
14
15
15
13
12
12
14
12
12
13
12
14
13
15
13
12
12
13
15
15
15
13
13
13
15
13
15
15
15
13
13
13
14
12
15
15
12
15
12
12
15
15
15
15
15
12
15
13
13
12
12
12
12
12
13
15
12
13
13
14
12
12
13
12
13
12
15
12
14
13
12
13
14
13
15
13
14
12
13
15
12
15
13
15
14
13
13
13
15
12
12
12
13
12
13
14
12
15
13
12
13
15
15
15
13
12
12
13
14
14
12
15
15
13
13
13
13
14
14
12
12
13
12
13
12
14
15
13
13
15
13
13
13
12
15
14
12
13
12
15
14
14
14
13
15
15
15
13
14
14
13
13
12
12
12
15
13
13
12
13
14
14
15
12
13
14
14
13
13
14
12
13
15
12
15
13
12
13
12
12
15
13
13
15
13
15
13
15
14
13
15
12
12
12
13
14
15
12
14
15
14
14
13
14
13
14
12
15
13
12
14
14
13
13
14
13
13
15
15
15
15
12
14
12
15
15
14
12
12
14
14
12
14
13
12
13
15
15
15
15
15
14
14
13
12
14
14
12
14
14
14
15
12
13
13
15
14
14
15
14
14
13
14
15
15
13
13
14
12
15
15
14
13
12
14
14
12
15
13
12
14
14
12
13
12
13
13
15
15
15
14
14
12
13
12
13
15
12
14
15
13
14
14
15
14
14
14
12
15
14
12
12
14
15
15
12
13
12
14
12
12
14
13
14
13
13
14
14
12
12
14
12
14
12
12
14
14
15
14
14
14
14
14
14
13
14
12
15
14
13
14
15
13
14
14
12
14
15
15
13
13
14
15
12
15
12
14
12
15
15
14
14
12
15
15
14
12
14
15
14
13
14
12
15
13
15
15
12
13
13
15
14
15
14
15
15
14
13
13
15
14
14
15
14
15
15
15
15
12
15
15
14
12
15
15
15
14
12
15
14
13
13
15
14
12
14
15
12
14
14
15
15
12
15
13
15
13
14
15
13
15
14
14
13
12
12
13
12
14
15
14
14
15
15
14
15
13
15
13
15
14
13
14
15
15
13
13
12
15
12
13
15
12
13
13
12
15
15
15
14
15
15
15
12
12
15
14
12
15
15
14
14
13
13
13
12
13
15
13
13
15
12
15
14
15
15
15
14
14
14
14
15
15
12
13
15
15
15
14
15
13
13
15
14
14
13
15
15
15
12
12
14
13
15
15
15
14
14
15
12
15
15
15
14
15
14
14
14
13
14
14
15
15
15
15
15
13
15
12
13
12
13
13
13
13
12
13
15
12
12
13
12
12
12
13
14
14
14
13
14
14
13
12
12
12
13
15
12
12
15
14
13
14
14
15
13
15
13
12
15
14
12
13
12
12
13
15
13
12
14
12
15
14
14
12
14
14
14
14
12
13
14
13
12
12
14
12
14
12
12
12
14
12
13
14
12
12
12
12
13
14
14
12
14
13
12
14
12
12
12
12
12
15
15
12
12
14
12
12
12
14
13
13
12
12
14
12
13
12
15
12
13
13
14
15
12
13
13
12
13
12
13
12
14
12
12
13
15
13
14
12
15
15
13
13
13
13
12
12
13
15
13
13
13
15
15
12
13
13
15
13
15
12
15
13
12
15
13
15
13
15
12
14
13
12
15
13
15
13
15
15
15
15
15
13
14
15
15
15
13
15
13
13
12
12
13
15
15
13
13
13
12
14
13
14
14
12
14
14
12
13
13
13
15
12
12
12
14
12
13
13
13
14
15
13
13
13
15
12
12
12
14
12
13
15
15
13
13
12
13
12
13
13
13
13
15
12
12
14
15
13
12
12
14
13
14
12
12
13
12
12
12
15
12
15
14
12
15
15
15
13
12
14
13
15
15
15
15
12
12
12
15
12
12
12
14
12
13
14
13
13
15
15
12
15
14
14
14
15
14
14
15
13
12
13
13
14
14
15
15
15
15
13
15
15
15
14
15
14
14
14
12
15
12
15
13
15
13
12
14
12
15
14
15
12
14
14
14
14
14
15
12
15
15
14
13
12
14
14
12
14
12
14
14
13
14
13
13
14
12
12
14
14
14
15
12
14
12
14
14
14
14
12
14
14
14
12
14
15
12
14
12
12
14
13
14
13
12
12
15
15
13
15
15
15
15
12
13
12
15
13
13
14
14
15
12
15
15
15
12
14
12
13
15
14
12
14
15
14
14
13
13
15
15
14
15
12
15
12
15
13
14
12
15
14
13
13
13
15
13
15
13
15
15
13
15
15
14
12
13
15
13
13
15
14
13
14
12
15
15
13
13
15
14
13
14
13
14
12
15
13
13
15
14
15
13
13
12
15
15
12
15
15
12
14
15
13
15
13
15
15
15
14
12
14
15
14
15
15
15
15
)


// ************************************************************************* //
