/*--------------------------------*- C++ -*----------------------------------*\
  =========                 |
  \\      /  F ield         | OpenFOAM: The Open Source CFD Toolbox
   \\    /   O peration     | Website:  https://openfoam.org
    \\  /    A nd           | Version:  7
     \\/     M anipulation  |
\*---------------------------------------------------------------------------*/
FoamFile
{
    version     2.0;
    format      ascii;
    class       Cloud<passiveParticle>;
    location    "2/lagrangian/coalCloud1";
    object      positions;
}
// * * * * * * * * * * * * * * * * * * * * * * * * * * * * * * * * * * * * * //

2000
(
(4.699103469e-05 0.1550391596 0.6594639413 0.1854499081) 0 18432 1
(0.0001249796702 0.5348907117 0.3289702018 0.1360141068) 3 18468 2
(3.889124726e-06 0.3586761669 0.0432035029 0.598116441) 13 18445 2
(1.633726812e-05 0.2804112915 0.2095030651 0.5100693062) 15 18469 1
(5.182569612e-05 0.3065553384 0.108959325 0.5844335109) 16 18481 2
(0.0001562006634 0.02174457621 0.1971634074 0.7809358157) 24 18434 2
(2.414643072e-06 0.6461598318 0.3300335598 0.02380419382) 26 18458 2
(1.311247115e-05 0.3904888622 0.5863125237 0.0231855016) 28 18482 2
(1.485889839e-05 0.1318472752 0.1183391133 0.7497987526) 29 18494 2
(0.0001849620317 0.7858457494 0.02651306334 0.1874562252) 36 18435 1
(0.09375491458 0.3199675248 0.41051099 0.1757665706) 37 129 2
(0.1672083521 0.2021982734 0.4597255722 0.1708678022) 38 132 1
(2.919306256e-05 0.3567847364 0.4662977069 0.1768883636) 39 18471 2
(0.07704696775 0.3270179484 0.5410944684 0.05484061544) 40 138 2
(0.000130796124 0.3725746925 0.1563969953 0.4708975161) 41 18495 1
(1.269004322e-05 0.585614947 0.3940803588 0.02029200425) 49 18448 1
(1.023801675e-05 0.7028416912 0.08009713789 0.2170509329) 50 18460 2
(0.04754799015 0.00415329644 0.6643702635 0.2839284499) 50 168 1
(0.1822395057 0.3800234292 0.1119547967 0.3257822683) 51 172 1
(1.673633692e-05 0.4841500201 0.01637496078 0.4994582828) 52 18484 1
(0.205452066 0.2687545991 0.3717853476 0.1540079873) 53 178 2
(0 0.394647479 0.2595485502 0.3458039707) 60 18437 1
(1.316718061e-05 0.2862102467 0.6145840367 0.09919254944) 61 18449 2
(2.35699425e-05 0.7325227802 0.1324715031 0.1349821467) 63 18473 1
(0.3450358581 0.3142082012 0.1307814022 0.2099745385) 64 212 2
(7.659435514e-05 0.4365369553 0.2442467319 0.3191397185) 65 18497 1
(0.1570811776 0.02061827423 0.5262031058 0.2960974424) 144 2 1
(0.3585885483 0.3000249058 0.04582127488 0.295565271) 146 11 1
(0.1498157893 0.09233710035 0.05314070344 0.7047064069) 147 470 2
(0.08528567273 0.526641141 0.3347545868 0.05331859949) 149 23 2
(0.09371716412 0.2493056452 0.5437472151 0.1132299756) 158 58 1
(0.04562950987 0.2236403059 0.6466288968 0.08410128741) 160 518 1
(0.1965938964 0.3896007029 0.1900589947 0.223746406) 168 88 2
(0.2584154125 0.2345498826 0.1706332833 0.3364014216) 169 92 1
(0.04028087636 0.1928065241 0.5025309054 0.2643816942) 171 98 1
(0.1051162256 0.1585932862 0.6490653322 0.08722515598) 172 557 2
(0.09494315132 0.06302187071 0.194995879 0.647039099) 173 104 2
(0.1787260834 0.7272631543 0.04008314973 0.05392761264) 180 580 2
(0.05154767027 0.08303438309 0.3059402023 0.5594777443) 194 587 1
(0.2922958778 0.2406005531 0.09716898588 0.3699345833) 183 591 1
(0.1369817553 0.09040279422 0.4728961757 0.2997192748) 185 597 2
(0.4274298754 0.1327840171 0.2992179033 0.1405682042) 196 631 2
(0.01676201002 0.7779877015 0.04460613108 0.1606441574) 205 653 1
(0.09792112215 0.7907392667 0.0435501066 0.06778950459) 207 665 1
(0.037490382 0.5710644816 0.3808891561 0.01055598025) 288 913 2
(0.7970142132 0.00715305778 0.1382331834 0.05759954564) 290 924 1
(0.03912309279 0.1171115839 0.03223193539 0.811533388) 291 927 1
(0.04419243491 0.07463833917 0.2245036197 0.6566656063) 293 929 1
(0.01378930525 0.227487286 0.4663759463 0.2923474625) 157 511 1
(0.03494362818 0.2798397827 0.05334619916 0.6318703899) 302 970 1
(0.2006140617 0.1119519394 0.07156541168 0.6158685873) 303 517 2
(0.06921613297 0.006739791846 0.221509422 0.7025346532) 304 975 1
(0.08386012698 0.6129858944 0.3005911036 0.002562874987) 313 1004 1
(0.003024269643 0.3577628979 0.1264085291 0.5128043033) 170 551 1
(0.07200598746 0.1311807086 0.4752149533 0.3215983507) 315 1010 2
(0.05317396659 0.1944567332 0.6546933279 0.09767597232) 317 978 2
(0.0269263226 0.8448899128 0.05955158626 0.06863217831) 325 1003 2
(0.1035686345 0.6962681755 0.1103722134 0.08979097662) 326 1044 2
(0.4119977565 0.0250531738 0.2442262892 0.3187227804) 328 1049 1
(0.05021575893 0.02785434388 0.5571634109 0.3647664862) 329 1015 1
(0.005283020688 0.6121428024 0.08588565219 0.2966885248) 337 1072 1
(0.04502560024 0.02467948637 0.3196237404 0.610671173) 337 1078 1
(0.2423124525 0.6878859374 0.003556673511 0.06624493665) 339 1084 1
(0.2129685714 0.2818702738 0.2671631885 0.2379979664) 348 655 2
(0.2172453657 0.2153301984 0.4983898558 0.06903458009) 349 659 1
(0.07312892215 0.1540469276 0.6126804376 0.1601437126) 350 1118 2
(0.1136842918 0.03692295468 0.6346193041 0.2147734494) 353 1122 2
(0.4621025263 0.00574142074 0.378872461 0.153283592) 432 1371 1
(0.3323377979 0.1122324535 0.1964120538 0.3590176947) 433 919 2
(0.5155409844 0.03377412836 0.3008032891 0.1498815981) 434 1379 1
(0.1596331124 0.4313786443 0.08024804267 0.3287402007) 437 1392 1
(0.2904833246 0.01580811924 0.1046252721 0.5890832841) 447 1428 1
(0.09932715955 0.04680173435 0.7657267411 0.08814436505) 448 1432 1
(0.1097751252 0.397062271 0.02811856023 0.4650440435) 458 1463 1
(0.06463049741 0.1875423494 0.2247230476 0.5231041057) 460 1468 1
(0.161868626 0.3450081045 0.3445098031 0.1486134664) 468 1491 1
(0.1233737286 0.2728407492 0.4834556203 0.1203299019) 480 1074 2
(0.04867735887 0.1854919172 0.03699644676 0.7288342771) 482 1537 1
(0.2310085335 0.2509172079 0.1823354563 0.3357388023) 484 1543 1
(0.3503315885 0.5349673546 0.1017076305 0.01299342642) 485 1544 2
(0.05122567533 0.1388542311 0.1605537274 0.6493663662) 493 1571 1
(0.3824534221 0.4923917698 0.1071304682 0.01802433992) 495 1575 2
(1.404908872e-05 0.6900854219 0.01942512368 0.2904754053) 4255 18714 1
(5.095202613e-06 0.168597695 0.1329720751 0.6984251347) 4256 18726 1
(0.0002651636866 0.7763512537 0.1585199592 0.06486362336) 4258 18750 2
(8.750162026e-06 0.4049180822 0.5110475473 0.08402562028) 4259 18703 2
(9.030346366e-06 0.0328036669 0.9627379785 0.00444932427) 4261 18727 2
(0.0002110488917 0.7723053087 0.01853082192 0.2089528205) 4263 18751 1
(0.0001816049546 0.457627709 0.02584431356 0.5163463725) 4265 18716 1
(0.0001600104567 0.2353823417 0.6243636667 0.1400939812) 4268 18752 1
(0.003916157313 0.1234884208 0.1763524547 0.6962429672) 4268 12598 1
(0.3420119961 0.05567359125 0.0007545639369 0.6015598488) 4269 12615 2
(7.640211559e-05 0.2917230221 0.3921447873 0.3160557885) 4271 18729 2
(0.127063769 0.4509357446 0.01700268409 0.4049978023) 4273 12627 2
(0.000126318153 0.31309253 0.6678575765 0.01892357536) 4276 18730 1
(0.0001127403257 0.003524377238 0.2074260259 0.7889368566) 4277 18742 2
(0.4271527702 0.04301338604 0.1486714146 0.3811624292) 4280 12646 2
(0.0493706367 0.1380811425 0.2506557917 0.5618924291) 4282 18743 2
(0.1103869325 0.1760656457 0.3824184286 0.3311289932) 4314 12574 2
(0.09741680267 0.2990555706 0.5376064671 0.0659211596) 4315 12743 1
(0.1173988771 0.1264812415 0.6274295915 0.12869029) 4317 12583 1
(0.1101660528 0.1102138676 0.4250310513 0.3545890282) 4320 12591 2
(0.1758749973 0.378627922 0.0913667744 0.3541303063) 4321 12760 1
(0.03864279473 0.3190699476 0.3067096746 0.3355775831) 4327 12774 1
(0.2258821009 0.5207448338 0.1501769869 0.1031960784) 4330 12772 2
(0.3697944429 0.1018546794 0.2384521488 0.2898987289) 4334 12630 2
(0.1020281341 0.5197286042 0.3456547841 0.03258847758) 4336 12789 2
(0.1700873021 0.1069643443 0.6224452314 0.1005031223) 4337 12805 1
(0.009753319685 0.3483788412 0.4330265268 0.2088413123) 5247 12821 2
(0.1270418753 0.4190292672 0.3266191895 0.1273096679) 4375 12898 2
(0.1330560473 0.3672011726 0.4507633929 0.04897938722) 4376 12914 1
(0.1207386759 0.4730546799 0.1643420057 0.2418646385) 4378 12906 1
(0.08884632899 0.6798350506 0.1264257678 0.1048928525) 4379 12922 1
(0.2651487119 0.1356725035 0.4301268685 0.169051916) 4381 12928 2
(0.2647323604 0.6588040763 0.07356240317 0.002901160092) 4383 12767 1
(0.2013627691 0.4004019125 0.1438489734 0.2543863451) 4384 1038 2
(0.4139156959 0.01230623361 0.1343477541 0.4394303164) 4385 12773 1
(0.08932684161 0.2809098537 0.01598929598 0.6137740087) 4387 12947 2
(0.2567007555 0.6245487433 0.08070453436 0.03804596677) 4388 12781 2
(0.3575996912 0.4035826785 0.02491439348 0.2139032369) 4389 12951 2
(0.4700530388 0.238854795 0.2097461539 0.08134601232) 4391 12790 2
(0.1969278787 0.6091689409 0.102550427 0.09135275332) 4393 12959 1
(0.04651514994 0.1593334648 0.741366546 0.05278483931) 4395 12967 1
(0.04846124469 0.63061577 0.3178285157 0.003094469647) 4397 12973 2
(0.426560276 0.3611519408 0.1217085745 0.09057920873) 4402 12987 1
(0.2041275701 0.3711765588 0.3441433994 0.08055247168) 4434 13063 2
(0.1442432162 0.1999336309 0.5032308882 0.1525922646) 4435 13079 1
(0.3639415417 0.004071178441 0.1047016122 0.5272856677) 4437 13086 2
(0.2555756753 0.5682927706 0.1101853795 0.06594617464) 4440 13094 1
(0.0663449186 0.03311147247 0.2169949023 0.6835487066) 4441 13097 1
(0.2925029735 0.4642932572 0.2034821191 0.03972165028) 4443 13102 1
(0.2974372795 0.5405752762 0.1006688274 0.06131861699) 4450 13108 2
(0.6137459904 0.003187505604 0.331945423 0.05112108103) 4452 13127 1
(0.05694980484 0.2815502396 0.379380175 0.2821197806) 444 1420 2
(0.049190011 0.6917858355 0.04169275348 0.2173314) 4455 13135 1
(0.1921795574 0.01606687754 0.4333643096 0.3583892555) 4457 13141 1
(0.1845025576 0.360908844 0.4102248392 0.04436375929) 4460 13149 1
(5.824943485e-06 0.1763409233 0.7787409949 0.0449122569) 5184 18756 2
(0.08106057637 0.09024630794 0.28447208 0.5442210357) 5186 15123 1
(3.64790055e-05 0.273119001 0.3667380043 0.3601065156) 5187 18792 2
(1.63386167e-05 0.02281603407 0.7933584176 0.1838092097) 5191 18781 1
(2.333851785e-07 0.04826045823 0.4513533932 0.5003859152) 5192 18793 2
(2.985298734e-05 0.7411600784 0.1477608615 0.1110492071) 5194 18758 2
(5.01436078e-06 0.4939140831 0.4326986702 0.0733822323) 5198 18806 1
(0.000247183922 0.2673747475 0.1409979471 0.5913801214) 5200 18771 2
(0.159782062 0.2447940874 0.002610532943 0.5928133176) 5201 15166 1
(3.539614473e-05 0.1519440868 0.5585787411 0.289441776) 5202 18795 2
(9.75090968e-05 0.7486594255 0.2428688444 0.008374220926) 5205 18772 1
(3.062740085e-05 0.4007455775 0.4791515243 0.1200722708) 5206 18784 2
(0.0001568542756 0.4212819852 0.3798152012 0.1987459593) 5208 18808 1
(0.2235449163 0.4044757753 0.3595904789 0.01238882949) 5209 18761 2
(0.0001273406695 0.4069769223 0.5527662152 0.04012952183) 5211 18785 1
(0.2234451328 0.008321936975 0.02026903975 0.7479638905) 5212 15192 2
(0.005886054987 0.3832507615 0.3956829305 0.215180253) 5213 18809 1
(0.1485733991 0.01082259573 0.7818574673 0.0587465379) 5247 15290 2
(0.04575395613 0.3344183721 0.006479775185 0.6133478966) 5250 15293 1
(0.004230640019 0.1864252659 0.5982205971 0.211123497) 5252 15302 1
(0.07896270929 0.3841009051 0.1395028668 0.3974335189) 5255 15312 2
(0.2440452427 0.3319061909 0.3962726992 0.02777586717) 5256 15152 1
(0.04595491035 0.436880118 0.05975279861 0.4574121731) 5260 15321 1
(0.0866578189 0.8275258169 0.0231125476 0.06270381659) 5263 15319 2
(0.2839497402 0.001422013716 0.7135986087 0.001029637426) 5265 15177 2
(0.3980693083 0.08178486464 0.0375363709 0.4826094562) 5266 15342 2
(0.1676032527 0.7324622458 0.05413939298 0.04579510855) 5268 15333 2
(0.07515980678 0.4446872049 0.1496032471 0.3305497412) 5329 15351 2
(0.244892124 0.6609728499 0.07758059821 0.01655442789) 5273 15347 2
(0.008183149531 0.342811048 0.4729824639 0.1760233385) 5245 15284 1
(0.1241648921 0.6987539927 0.07018380832 0.1068973068) 5309 15443 2
(0.03392220979 0.3167379258 0.3277737168 0.3215661476) 5311 15301 2
(0.1866521352 0.2404367111 0.4640093294 0.1089018242) 5316 15478 2
(0.1497603946 0.4401397316 0.1302696552 0.2798302187) 5318 15479 1
(0.009192674905 0.01510928702 0.9330784448 0.04261959332) 5319 15323 2
(0.0720764812 0.106653456 0.5179058614 0.3033642013) 5319 15486 1
(0.2019473135 0.449046992 0.194758967 0.1542467274) 5322 15332 2
(0.06713886391 0.06785924918 0.6388093666 0.2261925203) 5324 15498 2
(0.09456219975 0.06347334284 0.05588369715 0.7860807603) 5325 15340 1
(0.3808816989 0.4189115269 0.09621428058 0.1039924937) 5328 15507 2
(0.1701185364 0.5305925658 0.2466445807 0.0526443171) 5330 15515 1
(0.4903347781 0.2972063154 0.1983715387 0.01408736778) 5332 15508 2
(0.0956115432 0.008351929073 0.1380586066 0.7579779211) 5365 15447 2
(0.0460695946 0.2567717745 0.3218989204 0.3752597106) 5367 15453 1
(0.03258710396 0.09941707641 0.7559734215 0.1120223981) 5374 15620 2
(0.2524659245 0.01320877445 0.3645852335 0.3697400675) 5371 15626 1
(0.1662789475 0.1190388137 0.1961423496 0.5185398893) 5312 15467 1
(0.1492780245 0.3137908959 0.1189774559 0.4179536236) 5378 15642 2
(0.3053996758 0.3653837391 0.04078625288 0.2884303322) 5383 15656 1
(0.1219686291 0.04920509868 0.7202583977 0.1085678745) 5384 1388 2
(0.1304689358 0.06360608429 0.6066429302 0.1992820498) 5385 15651 1
(0.08409891838 0.1404915658 0.4112749499 0.3641345659) 5386 15506 1
(0.3780153437 0.2974722517 0.3094055328 0.01510687183) 5388 15673 1
(0.1640109816 0.3525745161 0.263918267 0.2194962353) 5390 15680 1
(0.01124242151 0.4621849516 0.08857380063 0.4379988263) 5391 15681 1
(0.09859257211 0.1609269969 0.0886237833 0.6518566477) 4448 13117 2
(0.00893704706 0.01740735272 0.08356420439 0.8900913958) 353 671 1
(1.9102648e-05 0.1978071443 0.7608955212 0.04127823185) 6 18504 1
(2.288185974e-05 0.695430132 0.17044729 0.1340996962) 7 18516 2
(2.724548249e-05 0.09117864153 0.4957394473 0.4130546657) 8 18528 1
(0.1344756974 0.1917333992 0.326061329 0.3477295744) 9 38 2
(9.562029153e-05 0.4518802273 0.4414905336 0.1065336188) 11 18564 1
(9.087454726e-05 0.4089284766 0.4534797506 0.1375008983) 19 18517 1
(0.0001722571466 0.05422940135 0.8250981225 0.120500219) 23 18565 1
(3.031920722e-05 0.006536341987 0.5855180207 0.4079153181) 31 18518 2
(0.06340747283 0.00118950333 0.733699346 0.2017036778) 32 113 2
(9.365568972e-05 0.6655125752 0.2269741604 0.1074196087) 33 18542 2
(0.0001779949504 0.2809990927 0.1374834409 0.5813394715) 42 18507 2
(0.3062987586 0.1004519807 0.253063654 0.3401856068) 43 146 2
(0.0003378714963 0.1968888815 0.7898349117 0.01293833526) 45 18543 1
(3.284540028e-05 0.7594957282 0.1473207231 0.09315070323) 46 18555 2
(8.937096694e-05 0.4145662988 0.1929793914 0.3923649389) 47 18567 2
(1.200529042e-05 0.4494175793 0.1275382726 0.4230321429) 54 18508 1
(1.158559652e-06 0.4465612664 0.469479143 0.08395843204) 58 18556 1
(8.534443135e-05 0.3831137647 0.2032131541 0.4135877367) 59 18568 1
(1.189021293e-05 0.06035982552 0.3470209169 0.5926073674) 66 18509 1
(1.179486917e-05 0.3792037558 0.1031939114 0.5175905379) 67 18521 2
(6.879184039e-06 0.0752297936 0.3107446614 0.6140186658) 68 18533 2
(0.07760108438 0.06317039579 0.3147355745 0.5444929453) 151 31 2
(0.179819489 0.1108058167 0.613758117 0.09561657731) 152 492 1
(0.4101297922 0.02726110737 0.4709984967 0.09161060377) 153 494 2
(0.2360898448 0.1753582335 0.2152796524 0.3732722693) 155 502 1
(0.1159920838 0.4354584446 0.1828153919 0.2657340797) 162 70 2
(0.07936574192 0.2887706465 0.5968982809 0.03496533062) 164 76 1
(0.1914092621 0.1349348592 0.2704576221 0.4031982566) 166 82 1
(0.2895225195 0.241903711 0.2391769146 0.229396855) 175 110 2
(0.3545024929 0.1450784275 0.01348150695 0.4869375727) 177 534 2
(0.2121568415 0.2433733932 0.4591415894 0.08532817584) 179 121 2
(0.1628716593 0.06757940133 0.2430987274 0.526450212) 186 144 2
(0.4379128565 0.009126816478 0.07933919669 0.4736211304) 187 601 1
(0.05994588459 0.5665022856 0.1577242621 0.2158275677) 189 607 1
(0.2271173645 0.6130130178 0.07373071496 0.08613890274) 200 641 1
(0.2501196471 0.09717315399 0.3002514049 0.352455794) 202 193 1
(0.1252777635 0.06325741361 0.07809012155 0.7333747014) 210 218 1
(0.2772426529 0.4544249194 0.2466462934 0.02168613428) 212 224 2
(0.07046801731 0.2511007039 0.2527828318 0.425648447) 213 227 1
(0.2354057623 0.1207671112 0.316381464 0.3274456625) 214 684 1
(0.1682410073 0.2113715071 0.2801608199 0.3402266657) 294 483 2
(0.08826534214 0.01082963155 0.8731380322 0.02776699413) 297 949 2
(0.2913310515 0.04441988648 0.6486116863 0.01563737573) 307 529 2
(0.17570054 0.5310454828 0.2056921864 0.0875617908) 308 946 2
(0.3962678656 0.1317896894 0.3155539432 0.1563885019) 310 992 1
(0.106278636 0.5203153357 0.09711372495 0.2762923034) 320 569 2
(0.1670182686 0.574687732 0.1098752669 0.1484187325) 321 1028 1
(0.1317064146 0.323004768 0.4915277153 0.05376110208) 330 1018 2
(0.2503877178 0.1978257123 0.4197236709 0.1320628991) 331 1059 1
(0.1087507468 0.3972124378 0.2372527161 0.2567840993) 332 1060 1
(0.04989954456 0.5108926823 0.2277387473 0.2114690258) 334 1030 1
(0.07810791853 0.02925648153 0.1021469866 0.7904886133) 335 614 1
(0.2160222877 0.3685268813 0.1792638978 0.2361869333) 342 1091 2
(0.3791739853 0.437392397 0.0883263075 0.09510731013) 344 1098 2
(0.3178576958 0.1546939521 0.4627346502 0.06471370185) 345 646 1
(0.1168136531 0.5586841012 0.08506543794 0.2394368078) 346 1103 2
(0.482930863 0.2361629772 0.2723813128 0.008524847073) 355 677 2
(0.6646244988 0.09862496661 0.1101264728 0.1266240618) 358 1142 1
(0.05127382669 0.1127839845 0.8251960129 0.01074617584) 359 1106 2
(0.0999818011 0.08756898775 0.5290474035 0.2834018076) 439 943 2
(0.5611038897 0.02807336211 0.1140351029 0.2967876454) 440 1402 2
(0.3308909894 0.4071484584 0.04660286984 0.2153576823) 443 1416 2
(0.01970336621 0.6890599659 0.1697082719 0.121528396) 450 1433 1
(0.07126506636 0.7390178271 0.1756834361 0.01403367039) 452 1443 1
(0.4184852568 0.1472509511 0.378370982 0.05589281012) 454 1448 2
(0.4713020863 0.02127760277 0.1721440967 0.3352762142) 462 1019 1
(0.05575000251 0.06014320306 0.76260815 0.1214986444) 465 1482 2
(0.1225200623 0.3971213208 0.1120359608 0.3683226561) 467 1033 2
(0.3149713302 0.01556493409 0.4638355505 0.2056281852) 474 1510 2
(0.04788918684 0.2091157406 0.6054939546 0.137501118) 476 1480 1
(0.3715882604 0.08810998767 0.1238137533 0.4164879986) 478 1522 1
(0.05509425 0.04037926918 0.6152550112 0.2892714696) 487 1547 1
(0.3893216552 0.3489577663 0.1500537704 0.1116668082) 488 1550 2
(0.0718833219 0.4566051948 0.1372893733 0.3342221099) 489 1520 2
(0.09013800185 0.1389914404 0.5587748936 0.2120956642) 498 1130 2
(0.1189234894 0.2892061501 0.193769266 0.3981010945) 500 1587 1
(0.3736825469 0.4361718832 0.02053472715 0.1696108428) 501 1139 2
(0.04452728754 0.2464700554 0.1848978492 0.5241048079) 503 1562 1
(1.737338214e-05 0.515583588 0.3924085559 0.09199048266) 2305 18588 2
(2.982075439e-05 0.1095658229 0.05350058039 0.836903776) 2307 18612 1
(0.142156947 0.2770663365 0.1213931387 0.4593835778) 2309 7153 1
(0.0001852612892 0.3348638342 0.3126770919 0.3522738126) 2311 18601 1
(0.03245399037 0.005440458313 0.3940688074 0.5680367439) 2312 7182 1
(4.009805154e-05 0.1792252873 0.3128074785 0.5079271361) 2314 18578 2
(2.048459318e-05 0.10629844 0.3618778031 0.5318032723) 2316 18602 1
(0.0001003488254 0.7324412812 0.2147652762 0.05269309381) 2318 18626 1
(0.05179467737 0.04247312623 0.04082374779 0.8649084486) 2319 7201 2
(0.00284970058 0.3426610051 0.5312538317 0.1232354626) 2320 18591 1
(0 0.4989308322 0.4353871037 0.06568206414) 2323 18627 1
(8.775656255e-06 0.0526385839 0.585600722 0.3617519184) 2325 18592 1
(4.276296254e-05 0.3217352411 0.1301081539 0.548113842) 2326 18604 2
(0.1047844545 0.09568659265 0.03123294572 0.7682960071) 2327 7224 2
(1.418641818e-05 0.3773546142 0.4265230363 0.1961081631) 2328 18628 1
(0.3461696405 0.5021297602 0.0883301024 0.06337049684) 2329 7229 2
(1.161434721e-05 0.2701089004 0.5601137536 0.1697657317) 2331 18605 2
(0.4374859087 0.1697956776 0.06998259644 0.3227358172) 2333 7236 2
(0.2338155353 0.1576630572 0.2292652219 0.3792561855) 2367 7166 1
(0.3754437663 0.0585077356 0.5096212586 0.05642723957) 2369 7345 1
(0.1328295507 0.595840426 0.2399640973 0.03136592596) 2371 7347 2
(0.05822793495 0.8466249806 0.03520589773 0.05994118671) 2375 7362 1
(0.2550658876 0.3323814967 0.1882077524 0.2243448633) 2376 7193 1
(0.08780061892 0.07050364932 0.7729671869 0.06872854482) 2378 7198 2
(0.1809475834 0.217995092 0.4147919727 0.1862653518) 2381 7207 1
(0.2754040121 0.2404502163 0.2534134062 0.2307323654) 2385 7218 1
(0.1262818014 0.7526172685 0.1027656003 0.01833532981) 2388 7384 2
(0.1837620591 0.06856866906 0.628071531 0.1195977408) 2388 7398 1
(0.06664699876 0.1957292972 0.5919054009 0.1457183032) 2390 7232 1
(0.06139289123 0.1290581879 0.6183976462 0.1911512747) 2393 7412 1
(0.4096453308 0.2782416836 0.02809341472 0.2840195708) 2425 7502 1
(0.1244921363 0.7662727479 0.03957081442 0.06966430137) 2429 7519 2
(0.4443246099 0.3607854554 0.08713864949 0.1077512852) 2431 7524 1
(0.1075351696 0.05329409693 0.7908583647 0.04831236886) 2432 7511 2
(0.1318576765 0.1658163287 0.2076002157 0.4947257791) 2435 7531 2
(0.1034104358 0.3191248293 0.1675712314 0.4098935034) 2436 7538 2
(0.05278187422 0.7683427479 0.1576317057 0.02124367217) 2438 7371 2
(0.4450389338 0.3176231983 0.1066002643 0.1307376035) 2440 7549 2
(0.266335266 0.4023944722 0.3121511722 0.01911908958) 2443 7385 2
(0.007365949342 0.8457080042 0.03881475309 0.1081112934) 2444 7561 1
(0.05393667228 0.7110206045 0.2180953254 0.0169473978) 2446 7565 1
(0.2125745539 0.5923116769 0.08085355593 0.1142602133) 2448 7572 2
(0.08243525078 0.5653651308 0.1677016728 0.1844979457) 2450 7563 2
(0.0430581739 0.01391191539 0.06088742238 0.8821424883) 2450 7577 1
(0.05231045347 0.1424144329 0.3232147678 0.4820603458) 2391 7408 1
(0.07526298418 0.2671375032 0.3621654748 0.2954340379) 2485 7678 2
(0.4381730609 0.2478328797 0.2944839921 0.01951006728) 2487 7683 1
(0.2245476184 0.2593560613 0.2733121251 0.2427841952) 2491 7693 2
(0.03936807114 0.2998626442 0.5356820502 0.1250872344) 2492 7699 1
(0.05754306286 0.2394584085 0.6403861611 0.06261236761) 2494 7706 1
(0.7945217563 0.004366807688 0.1354984192 0.06561301679) 2496 7711 1
(0.2079021796 0.1143571982 0.002253734118 0.675486888) 2498 7713 1
(0.511342212 0.01329251594 0.2968919685 0.1784733035) 2500 7718 2
(0.3497182977 0.0866655346 0.5461439885 0.01747217922) 2501 7553 1
(0.2608000572 0.2455568181 0.02499457563 0.4686485491) 2503 7731 2
(0.5372137177 0.008326919598 0.1531666892 0.3012926735) 2505 7737 2
(0.1576160162 0.1588621005 0.0006264729585 0.6828954104) 2506 7739 2
(0.2928469666 0.343559784 0.08643345873 0.2771597906) 2509 7575 2
(0.0170370342 0.6590811144 0.1135410116 0.2103408398) 2513 7586 2
(0.0001832890014 0.3496180798 0.4354883995 0.2147102316) 5215 18774 1
(0.3556402616 0.1095239249 0.122473248 0.4123625655) 5216 15207 2
(0.0001696865648 0.3516844557 0.4262139141 0.2219319436) 5218 18810 1
(0.1704360496 0.03827536421 0.3336793605 0.4576092257) 5219 15216 1
(0.00012237319 0.06803745035 0.8221125238 0.1097276526) 5220 18775 2
(0.3829674551 0.1382556449 0.07373922274 0.4050376772) 5223 15223 1
(3.981218467e-05 0.3542624998 0.06521656326 0.5804811248) 5224 18764 1
(0.3337762451 0.1338515766 0.1195472821 0.4128248962) 5226 15236 2
(4.833721607e-05 0.3968456108 0.5999523087 0.003153743226) 5227 18800 2
(7.965440896e-05 0.4410536837 0.03706293166 0.5218037302) 5234 18766 2
(0.2764746574 0.3484692994 0.1648208413 0.2102352019) 5231 15249 1
(8.439902313e-06 0.3460596996 0.5849281928 0.06900366773) 5233 18813 1
(0.0001300793153 0.3379485868 0.01134432644 0.6505770075) 5240 18779 2
(1.834261683e-05 0.06710012221 0.7099583595 0.2229231757) 5237 18802 2
(5.567481388e-05 0.2167344035 0.05067616582 0.7325337558) 5242 18803 1
(0.006340659644 0.5675640973 0.0162055378 0.4098897053) 5214 15202 2
(0.2019770114 0.3093551649 0.4706033183 0.01806450543) 5275 15353 2
(0.07207265792 0.1351809068 0.1530760433 0.639670392) 5277 15373 2
(0.1108338893 0.2083101603 0.171840047 0.5090159034) 5278 15361 1
(0.003371939667 0.003318978968 0.3062816275 0.6870274539) 5279 488 2
(0.5209554095 0.1557635674 0.050682792 0.272598231) 5281 15222 2
(0.2836632463 0.4640402566 0.1055645557 0.1467319413) 5285 15396 1
(0.2125184022 0.460152089 0.06413129359 0.2631982152) 5288 15389 1
(0.3996393578 0.2573314412 0.2767531231 0.06627607789) 5290 15405 1
(0.2144662612 0.7750364468 0.002302210307 0.008195081755) 5293 15414 1
(0.1990995399 0.06664311815 0.7016277319 0.03262961002) 5294 15258 2
(0.3732340114 0.2316488432 0.0346141056 0.3605030398) 5296 15422 2
(0.0001724185219 0.8266235189 0.04861094069 0.1245931219) 5297 15428 1
(0.2941992386 0.08614870523 0.3472501356 0.2724019206) 5300 15273 2
(0.2458716972 0.05652642644 0.1286756839 0.5689261925) 5302 15277 1
(0.2515069029 0.1867729615 0.2523827242 0.3093374114) 5334 15528 2
(0.002832125215 0.2152992153 0.35610382 0.4257648395) 5336 15371 1
(0.02024439156 0.5348512195 0.01747049133 0.4274338976) 5340 15382 1
(0.4238776405 0.1438894357 0.3174232716 0.1148096522) 5341 15547 2
(0.3988074456 0.4312520449 0.145198703 0.02474180648) 5343 15549 1
(0.04148999686 0.1450849411 0.6972613588 0.1161637033) 5345 15559 2
(0.05667837453 0.08678032964 0.8037026623 0.05283863352) 5346 15399 1
(0.3156234537 0.1617848504 0.3036289417 0.2189627541) 5348 15563 2
(0.2574257424 0.4547739484 0.2518611208 0.03593918835) 5349 952 2
(0.1184349975 0.2347046161 0.4061573416 0.2407030448) 5351 15575 1
(0.1353585137 0.3030512437 0.2827895437 0.2788006988) 5353 15577 1
(0.7077172203 0.1407408455 0.09192378226 0.05961815195) 5354 15421 2
(0.1437210131 0.2130032973 0.4410628918 0.2022127978) 5357 15591 1
(0.1718482451 0.2221297601 0.1033914842 0.5026305106) 5360 15598 2
(0.3887081614 0.104842937 0.04329856946 0.4631503321) 5362 7513 1
(0.08662978299 0.1115223781 0.2065915227 0.5952563162) 5395 15531 1
(0.2565625865 0.013607674 0.6853048757 0.04452486383) 5397 15537 2
(0.04851899458 0.7500700432 0.04566155659 0.1557494057) 5398 15539 1
(0.2747364859 0.2657137989 0.2241940052 0.23535571) 5400 15706 2
(0.3889346854 0.1652015423 0.3950665362 0.05079723619) 5403 15712 1
(0.03907786765 0.4566373814 0.3617069906 0.1425777603) 5404 15704 2
(0.2449376185 0.1744914332 0.1452268737 0.4353440747) 5406 15723 2
(0.3475238997 0.3237883858 0.3161753857 0.01251232874) 5409 15732 2
(0.03270297315 0.503181517 0.1187988503 0.3453166596) 5411 15739 1
(0.2075195721 0.38002767 0.3436993565 0.0687534014) 5413 15740 2
(0.2489767181 0.0578993144 0.4490909196 0.2440330479) 5415 15748 2
(0.2961890016 0.431035363 0.07992615736 0.1928494781) 5417 15754 2
(0.4024981283 0.3872700892 0.1548013984 0.0554303841) 5422 15765 2
(9.697343215e-06 0.1787479167 0.7703563462 0.05088603973) 73 18450 1
(6.887294169e-05 0.3149598034 0.1596578499 0.5253134738) 74 18462 1
(3.901536566e-05 0.1748736661 0.4115903312 0.4134969873) 75 18474 2
(1.296622131e-05 0.1320920221 0.3531935655 0.5147014462) 77 18498 1
(9.362348071e-05 0.1158461158 0.7964441682 0.08761609258) 87 18475 1
(4.373360565e-06 0.3999048294 0.2012253898 0.3988654075) 88 18487 1
(0.007020093857 0.0001089133546 0.8624512812 0.1304197116) 89 288 1
(1.434670183e-05 0.6412760877 0.09002008725 0.2686894784) 96 18440 2
(3.041596799e-05 0.2939725242 0.01167449326 0.6943225666) 97 18452 2
(0.1725400617 0.2252307567 0.4375223003 0.1647068813) 99 319 2
(1.107406891e-05 0.08519518742 0.8096310489 0.1051626896) 100 18488 2
(2.012516108e-05 0.7081896653 0.2722921602 0.01949804939) 109 18453 1
(0.000110258398 0.5777292068 0.1074626594 0.3146978754) 110 18465 2
(1.330244498e-05 0.4013159107 0.400444726 0.1982260609) 120 18442 1
(0.4767332491 0.05143511254 0.456830814 0.01500082436) 122 386 2
(6.630142131e-05 0.6074781404 0.12244338 0.2700121781) 123 18478 2
(0.0002991727398 0.2400253155 0.1338062079 0.6258693038) 124 18490 2
(0.04914131778 0.02756380211 0.2099762537 0.7133186265) 124 392 2
(0.2837927691 0.1972042452 0.3723229668 0.1466800188) 125 398 2
(0.08824288392 0.3709553918 0.007540589386 0.5332611349) 132 420 2
(3.177202911e-05 0.6481399244 0.1672184631 0.1846098404) 133 18455 2
(0.03707971125 0.0269625684 0.4364805164 0.499477204) 134 18467 2
(9.96842121e-05 0.4315931541 0.4664459445 0.1018612171) 136 18491 2
(0.08280645209 0.2030785369 0.4064875942 0.3076274169) 137 436 2
(0.1114602891 0.5034843352 0.06057613099 0.3244792447) 216 236 2
(0.1125984866 0.2301049387 0.3465078252 0.3107887495) 217 240 1
(0.04395214697 0.8947494131 0.0002660403715 0.06103239955) 219 246 2
(0.1167538372 0.1671039689 0.6693632449 0.04677894896) 220 249 1
(0.0132138463 0.05166923708 0.7933480339 0.1417688828) 220 700 2
(0.0144675334 0.1127910275 0.7960593663 0.07668207277) 221 670 2
(0.08430082467 0.3256283817 0.004399058922 0.5856717348) 229 727 1
(0.08727860018 0.3947556983 0.1828172376 0.3351484639) 230 280 2
(0.1945233335 0.1971850101 0.4294727814 0.178818875) 231 283 1
(0.08872032416 0.03125016546 0.5665573315 0.3134721788) 240 310 2
(0.09340629394 0.1446598778 0.09050505241 0.6714287759) 241 314 2
(0.3268548621 0.08718611886 0.4042593454 0.1816996736) 242 771 2
(0.3420778624 0.1384574398 0.09269129732 0.4267734005) 244 774 2
(0.0460273903 0.08978696972 0.122324177 0.741861463) 254 805 2
(0.4300156181 0.3255357236 0.1519467469 0.09250191133) 255 812 1
(0.2387809167 0.3220373021 0.3995359552 0.03964582602) 256 814 1
(0.0969719092 0.8339619539 0.03521405349 0.03385208341) 264 838 1
(0.2411863557 0.1424165733 0.01962949393 0.596767577) 269 851 2
(0.2062135515 0.002365222 0.5534340995 0.2379871271) 277 424 2
(0.5315911338 0.4317473073 0.02004759336 0.01661396554) 278 882 1
(0.102883851 0.1092401743 0.0537749527 0.734101022) 361 1146 1
(0.1175819011 0.1677656673 0.09657698859 0.618075443) 362 699 2
(0.3751836665 0.469726287 0.05698709207 0.09810295439) 365 708 2
(0.4222615504 0.3980732615 0.02487336602 0.154791822) 376 742 2
(0.2299406339 0.2174831824 0.487297031 0.06527915277) 377 745 1