/*--------------------------------*- C++ -*----------------------------------*\
  =========                 |
  \\      /  F ield         | OpenFOAM: The Open Source CFD Toolbox
   \\    /   O peration     | Website:  https://openfoam.org
    \\  /    A nd           | Version:  7
     \\/     M anipulation  |
\*---------------------------------------------------------------------------*/
FoamFile
{
    version     2.0;
    format      ascii;
    class       scalarField;
    location    "2/lagrangian/coalCloud1";
    object      ppT4sum;
}
// * * * * * * * * * * * * * * * * * * * * * * * * * * * * * * * * * * * * * //


2000
(
3.154460578e+10
3.154459688e+10
2.365847958e+10
3.15446264e+10
3.1544597e+10
3.154464368e+10
3.154464569e+10
3.943080634e+10
3.94307492e+10
4.731719733e+10
4.731716116e+10
6.309117634e+10
2.365849275e+10
6.308943206e+10
4.731692231e+10
3.943244242e+10
2.365867918e+10
5.52052215e+10
3.154479544e+10
3.943078608e+10
4.731692719e+10
2.365880285e+10
3.943094324e+10
3.154493772e+10
3.943092356e+10
3.154460682e+10
3.154460113e+10
5.520304677e+10
5.520304866e+10
4.731689419e+10
4.731693496e+10
4.731689345e+10
6.308922178e+10
4.73169644e+10
5.52031201e+10
5.520310774e+10
3.154459783e+10
4.73181619e+10
4.731798908e+10
7.097560878e+10
5.520305922e+10
3.94307585e+10
6.309181688e+10
3.154495454e+10
3.94307481e+10
5.52030783e+10
3.154462493e+10
4.731689832e+10
3.94307488e+10
4.731694814e+10
4.731695252e+10
6.308922537e+10
5.520309363e+10
5.520312445e+10
3.154467934e+10
6.308919412e+10
4.731767512e+10
5.520338205e+10
4.731694305e+10
7.097537011e+10
5.520535603e+10
3.154551993e+10
4.731713052e+10
4.731885664e+10
4.73183729e+10
5.520518787e+10
4.731696056e+10
4.732357733e+10
5.520327733e+10
2.36683575e+10
5.520494449e+10
3.943110904e+10
4.73300183e+10
4.733480224e+10
6.308929785e+10
6.310965821e+10
4.732235706e+10
7.098671429e+10
3.94377817e+10
4.731702919e+10
4.73603036e+10
5.520317624e+10
3.943358276e+10
3.15454738e+10
2.365875125e+10
3.943153287e+10
2.366059722e+10
1.57723899e+10
3.943151054e+10
3.154485313e+10
3.943109261e+10
5.520306572e+10
2.365844954e+10
3.943074862e+10
3.943074827e+10
2.365844601e+10
4.731689774e+10
3.154459429e+10
6.309196327e+10
6.309514814e+10
4.731873797e+10
5.520522546e+10
5.52062991e+10
3.943100489e+10
4.731716916e+10
4.731690509e+10
5.520304972e+10
2.365844873e+10
3.943074378e+10
5.520962719e+10
6.309258427e+10
3.154852822e+10
3.943265474e+10
6.309371766e+10
3.154618733e+10
4.73198947e+10
4.732151107e+10
5.520569368e+10
3.943076836e+10
3.943077241e+10
4.731691365e+10
4.731689686e+10
3.94307571e+10
3.943074608e+10
3.154460206e+10
3.967680666e+10
4.732810065e+10
5.52901017e+10
3.967268094e+10
4.732971903e+10
3.154741158e+10
4.731901125e+10
3.943088236e+10
5.520319979e+10
4.731998111e+10
1.577230449e+10
6.309233427e+10
3.154460144e+10
4.731689867e+10
3.154459692e+10
3.943075133e+10
3.943073922e+10
3.943075125e+10
2.36584511e+10
3.943075232e+10
6.308921698e+10
3.154459974e+10
4.731690106e+10
3.943074905e+10
3.154459764e+10
3.943074704e+10
3.943074694e+10
4.731688926e+10
2.365844349e+10
4.731693383e+10
5.520305334e+10
3.154460245e+10
4.731691673e+10
5.520304602e+10
5.520305495e+10
3.943076484e+10
3.943074973e+10
6.30891926e+10
3.943074437e+10
3.943074377e+10
3.943074113e+10
3.154461481e+10
3.943078512e+10
4.731692714e+10
4.732657731e+10
3.154463804e+10
3.154459844e+10
3.943079788e+10
5.520314294e+10
5.520309453e+10
3.943076467e+10
4.731701529e+10
6.30891951e+10
4.731688772e+10
4.732311022e+10
3.945814561e+10
5.521305063e+10
2.365852821e+10
3.943675515e+10
3.944919572e+10
3.945495446e+10
4.733349261e+10
5.522407667e+10
3.943081349e+10
3.156383611e+10
4.732063202e+10
4.731852158e+10
3.943684209e+10
5.520306894e+10
4.731689648e+10
4.731690067e+10
3.94307578e+10
4.731731456e+10
3.943121747e+10
3.154460355e+10
4.731724015e+10
3.154478827e+10
6.308943055e+10
3.154461826e+10
3.154459916e+10
3.943077625e+10
3.943092271e+10
3.943105278e+10
5.52033576e+10
3.943079024e+10
2.365863136e+10
3.154511231e+10
2.365847929e+10
5.520383765e+10
3.154767384e+10
5.52030529e+10
3.943075454e+10
4.731713982e+10
5.520359973e+10
4.731689542e+10
5.520306852e+10
3.943108743e+10
3.154460525e+10
3.94307656e+10
3.943097667e+10
5.520308538e+10
4.731692659e+10
5.520322602e+10
6.308928913e+10
3.943096907e+10
6.308927751e+10
4.73173215e+10
6.309258777e+10
4.7317803e+10
4.73168987e+10
5.520305669e+10
4.731690333e+10
4.731690234e+10
4.731713064e+10
7.097536842e+10
4.731692012e+10
6.308920918e+10
6.308923549e+10
3.154460238e+10
3.154462362e+10
6.308937343e+10
5.520305211e+10
3.943080559e+10
5.520316575e+10
6.308938538e+10
4.731695679e+10
5.520326186e+10
5.520325051e+10
3.943079817e+10
7.097544588e+10
5.52031958e+10
5.520312421e+10
3.943414145e+10
4.731703089e+10
6.309255828e+10
3.155294526e+10
6.308928508e+10
3.943740957e+10
4.732360399e+10
6.308953038e+10
3.943271231e+10
3.943087687e+10
3.154460256e+10
4.73170176e+10
3.945318677e+10
5.520320511e+10
3.943901506e+10
3.15451549e+10
3.943122203e+10
5.520370956e+10
3.154580729e+10
4.73180971e+10
4.731726741e+10
3.154570596e+10
3.154508207e+10
5.520339549e+10
3.154504357e+10
2.365902273e+10
4.731703988e+10
3.154473407e+10
6.308970205e+10
1.577231499e+10
5.520384544e+10
3.154464225e+10
3.154460602e+10
3.943103966e+10
4.731714413e+10
3.943116537e+10
4.731709573e+10
3.943106055e+10
3.943190827e+10
5.52036891e+10
4.731701061e+10
3.943084792e+10
3.943080135e+10
4.731701958e+10
1.57723269e+10
4.731719803e+10
2.365856354e+10
5.520314432e+10
3.154478361e+10
7.886173732e+10
5.520312297e+10
3.94310169e+10
3.943075829e+10
3.154460768e+10
2.365849175e+10
4.73169748e+10
4.732794499e+10
3.943082482e+10
4.73226251e+10
3.94309014e+10
5.52203903e+10
3.944776372e+10
3.94308648e+10
4.731699516e+10
4.732361682e+10
4.734955566e+10
3.943095309e+10
4.732354398e+10
3.154472743e+10
3.948149328e+10
3.944073376e+10
3.943643071e+10
3.154466898e+10
4.736373334e+10
4.731689947e+10
4.731689131e+10
3.154458545e+10
5.520305035e+10
3.154460177e+10
3.154459044e+10
3.154471743e+10
4.731690693e+10
2.365848312e+10
3.943280224e+10
3.154494219e+10
3.943111336e+10
7886265111
2.365858e+10
2.365871505e+10
3.154459584e+10
2.365844936e+10
4.731687675e+10
3.943072181e+10
4.731689752e+10
3.943074573e+10
6.308918466e+10
3.154462106e+10
4.731721382e+10
2.365863238e+10
4.73173184e+10
6.308970521e+10
3.154491484e+10
4.731748518e+10
2.365897368e+10
5.52030668e+10
3.154459066e+10
3.154459823e+10
3.15445918e+10
3.943072716e+10
7.097545703e+10
3.943077601e+10
3.943080575e+10
7.097534762e+10
4.731712857e+10
1.577229941e+10
6.308936322e+10
2.365862584e+10
5.520331892e+10
2.365854702e+10
3.943076675e+10
4.731690014e+10
3.154459729e+10
4.732662991e+10
3.943083859e+10
6.308933254e+10
5.521331671e+10
4.732488493e+10
3.943119741e+10
3.155549135e+10
3.154497423e+10
2.365852647e+10
3.156183075e+10
3.943084394e+10
3.154462016e+10
3.154476817e+10
3.154460715e+10
3.943075207e+10
3.943074136e+10
5.520304627e+10
3.943097136e+10
3.154460232e+10
3.9430743e+10
4.73168874e+10
2.365845699e+10
2.365845086e+10
3.943090843e+10
4.731690955e+10
3.943074266e+10
4.731687978e+10
4.7316933e+10
6.308919548e+10
4.731720212e+10
3.154461529e+10
3.154464354e+10
2.365848395e+10
4.731691501e+10
7.097563078e+10
5.520377779e+10
3.943108079e+10
5.520305117e+10
3.943091353e+10
5.520359913e+10
7.886150785e+10
4.731690006e+10
4.731690292e+10
6.308947962e+10
5.520305214e+10
3.943074462e+10
7.097532896e+10
5.520305341e+10
3.943075031e+10
3.154459392e+10
2.365845809e+10
5.520306255e+10
4.731695576e+10
5.520309369e+10
5.520384129e+10
3.943074373e+10
5.520304698e+10
4.731688991e+10
6.30891936e+10
7.097545402e+10
4.731689767e+10
4.731692515e+10
6.30892227e+10
5.520305943e+10
4.731690185e+10
7.097540284e+10
5.520305073e+10
3.943075808e+10
5.520306931e+10
3.15446008e+10
3.943076389e+10
7.097546464e+10
4.731692947e+10
3.943106766e+10
5.520324005e+10
3.15447779e+10
4.731863693e+10
3.156536412e+10
3.943082241e+10
4.731696323e+10
3.943247046e+10
5.520325309e+10
6.309904904e+10
4.731714291e+10
2.365850766e+10
5.520892298e+10
3.943100031e+10
5.520337137e+10
4.731715029e+10
4.731758401e+10
5.520362774e+10
4.733404054e+10
3.154465828e+10
2.365844191e+10
3.154463719e+10
2.365844264e+10
3.943079786e+10
3.943100043e+10
5.520321013e+10
3.943084389e+10
3.943153358e+10
3.154504965e+10
2.365865757e+10
6.308949997e+10
4.731891854e+10
1.577260952e+10
3.154489689e+10
5.520315714e+10
4.731701221e+10
4.731701861e+10
3.154458464e+10
6.30894231e+10
3.943105445e+10
6.308965641e+10
4.731809531e+10
3.154506364e+10
4.731800572e+10
2.365876855e+10
3.943151871e+10
5.520452835e+10
2.365843787e+10
4.731737366e+10
4.731778839e+10
3.154512707e+10
4.731740942e+10
4.747349531e+10
3.943195868e+10
3.943131991e+10
3.943156673e+10
4.731756811e+10
3.943538372e+10
3.154526139e+10
3.943192751e+10
4.731896008e+10
5.520492234e+10
3.154507354e+10
4.749079092e+10
3.15595212e+10
4.731925733e+10
3.154889059e+10
3.955816043e+10
3.944178486e+10
4.743392557e+10
3.173910742e+10
3.154671319e+10
2.366026923e+10
3.15466016e+10
1.577261906e+10
5.520388299e+10
2.36594325e+10
2.365926857e+10
2.365888013e+10
3.943233292e+10
3.154524524e+10
3.943338716e+10
4.73171469e+10
4.731757451e+10
4.731970676e+10
1.577252361e+10
3.943133978e+10
5.520360323e+10
5.520367278e+10
4.731907331e+10
4.731755348e+10
4.731808786e+10
7.097596643e+10
6.309118883e+10
3.943512199e+10
4.731722225e+10
3.154493463e+10
5.520517151e+10
3.154673229e+10
2.365861215e+10
5.520332195e+10
3.154577145e+10
5.52032301e+10
4.73172882e+10
4.731718235e+10
3.943094993e+10
3.154662526e+10
4.731964138e+10
3.943161762e+10
4.732236759e+10
3.943451204e+10
5.520757538e+10
3.173899265e+10
5.520308318e+10
4.731746296e+10
4.731726833e+10
3.94308426e+10
4.731702475e+10
3.943475774e+10
3.154669322e+10
4.731908325e+10
3.944078351e+10
3.943321323e+10
4.740688481e+10
5.529070577e+10
5.520451017e+10
6.311500048e+10
3.944284671e+10
3.943101578e+10
4.731784062e+10
2.365888604e+10
3.154546874e+10
4.731777644e+10
3.943110267e+10
3.15453212e+10
4.732097904e+10
4.731689547e+10
2.365844942e+10
6.308953197e+10
3.15447746e+10
4.731760799e+10
7.097608439e+10
3.943074211e+10
4.731690687e+10
3.943075102e+10
3.943099065e+10
3.943122694e+10
3.943074813e+10
4.731693932e+10
4.731737468e+10
3.943077832e+10
3.943168933e+10
4.731725601e+10
3.154463692e+10
4.731762164e+10
5.520392197e+10
6.308919545e+10
3.154478233e+10
4.731726558e+10
3.943074744e+10
4.73169072e+10
6.308936145e+10
5.520393312e+10
3.154495201e+10
7.886150379e+10
5.520305327e+10
5.520328952e+10
3.943122223e+10
4.731748203e+10
5.520331339e+10
5.520312081e+10
3.943076337e+10
4.731715328e+10
5.520354727e+10
6.308925665e+10
3.943117118e+10
4.731698608e+10
4.731710015e+10
6.308935234e+10
3.943093975e+10
5.520326441e+10
7.097610754e+10
5.520313822e+10
4.73169227e+10
4.731695021e+10
5.520307109e+10
3.943078507e+10
3.154486307e+10
4.731922489e+10
5.520355314e+10
3.945324741e+10
4.731722586e+10
3.943428136e+10
5.521588387e+10
4.735550948e+10
3.94521709e+10
7.097554513e+10
3.948189724e+10
3.943092371e+10
3.944706334e+10
4.733321451e+10
5.521742012e+10
3.154476708e+10
4.734205105e+10
5.521225366e+10
5.520355977e+10
5.523027751e+10
3.94396895e+10
4.751906679e+10
4.75022192e+10
4.731729236e+10
3.943082198e+10
4.731692516e+10
4.731694626e+10
6.308938845e+10
1.577230604e+10
3.154529106e+10
3.154461171e+10
4.731691081e+10
3.154458873e+10
3.943099946e+10
3.154470686e+10
3.943075e+10
5.520361879e+10
3.943095024e+10
5.520374549e+10
3.943154384e+10
2.365890643e+10
1.577264115e+10
5.520343469e+10
3.154461628e+10
3.9430747e+10
4.731690337e+10
3.943109748e+10
4.731690662e+10
3.943119122e+10
3.94307251e+10
4.731689069e+10
6.308987836e+10
5.520349361e+10
4.731785693e+10
3.154492374e+10
3.943145125e+10
4.731689224e+10
6.308919071e+10
2.365851873e+10
3.943075131e+10
3.154458588e+10
3.943077899e+10
4.731723935e+10
6.308917985e+10
2.365843941e+10
3.943086486e+10
3.154483021e+10
4.731699582e+10
4.735288596e+10
3.947786317e+10
3.943872372e+10
5.520332589e+10
3.943230675e+10
4.731694135e+10
3.154520315e+10
4.731897653e+10
4.731716561e+10
6.308984222e+10
3.943130463e+10
3.943082608e+10
0
4.731941879e+10
4.731742103e+10
1.577253503e+10
3.943103657e+10
3.943166354e+10
3.943141757e+10
4.731702258e+10
4.731694907e+10
3.154470107e+10
2.365844919e+10
3.943079847e+10
2.365849493e+10
3.943078261e+10
3.154466498e+10
3.943089727e+10
2.365847137e+10
3.943199747e+10
3.943188569e+10
4.731779522e+10
3.943100641e+10
5.520309299e+10
2.365907869e+10
4.731834098e+10
4.732025411e+10
3.154603255e+10
3.154461002e+10
6.309336682e+10
3.943220352e+10
4.731696025e+10
6.309061567e+10
1.577232657e+10
5.520445797e+10
3.943077901e+10
3.943144431e+10
4.731702569e+10
4.731689901e+10
3.943139273e+10
6.309255346e+10
3.154511268e+10
7.098008136e+10
3.154592946e+10
4.731971478e+10
7.097807357e+10
3.943082193e+10
3.154529143e+10
5.520340459e+10
3.943077976e+10
3.943171476e+10
3.154861903e+10
3.172958329e+10
3.943211808e+10
4.732229412e+10
3.943390135e+10
2.365848908e+10
3.944394644e+10
3.156696861e+10
5.52880637e+10
3.154526242e+10
5.526925345e+10
6.311780621e+10
3.94825077e+10
6.30973366e+10
5.524437709e+10
6.310418031e+10
3.946308415e+10
6.312481947e+10
3.946928172e+10
4.750343966e+10
6.317819498e+10
4.732433209e+10
6.311835084e+10
6.749578808e+10
5.775537033e+10
5.186833498e+10
4.827705758e+10
5.224552178e+10
5.758141357e+10
4.359435153e+10
4.319802189e+10
5.056150542e+10
5.150505121e+10
5.470669981e+10
7.565728435e+10
6.255552523e+10
5.916883039e+10
5.928043672e+10
5.646604447e+10
4.739669838e+10
8.30005574e+10
1.571223348e+11
6.320167496e+10
6.28304974e+10
3.574265396e+10
2.60869198e+11
5.860594674e+10
6.118262863e+10
1.758074904e+11
5.050004134e+10
1.068534097e+11
8.651811017e+10
1.130931107e+11
3.933742195e+10
5.645815476e+10
9.324227729e+10
6.08511486e+10
6.655728195e+10
9.925520513e+10
3.560425638e+11
3.713294541e+12
1.913929219e+11
9.005218317e+12
5.149995147e+12
8.86074635e+12
2.529382144e+11
5.244803999e+12
3.370223906e+12
1.402924479e+12
6.352198129e+12
3.635805615e+12
1.367397731e+13
5.388334482e+12
1.122111361e+12
3.418197444e+12
2.367381636e+10
4.734281473e+10
2.367252095e+10
3.943111141e+10
4.73846536e+10
3.946905204e+10
4.732855443e+10
3.947373154e+10
3.158571204e+10
3.156124073e+10
2.370136393e+10
5.150813457e+10
4.340015383e+10
4.297161884e+10
5.962852061e+10
4.061661457e+10
4.336854306e+10
4.978796039e+10
6.142647333e+10
4.737987846e+10
3.466135973e+10
5.225907869e+10
4.587498269e+10
9.301346207e+10
4.736999171e+10
7.401270011e+10
6.452845543e+10
4.872111961e+10
1.043070558e+11
6.791159798e+10
7.423077909e+10
7.004401539e+10
1.027066075e+11
7.822583264e+10
7.486807787e+10
1.087467031e+11
7.583291986e+10
8.18032922e+10
1.411075338e+11
1.127445117e+11
7.405490796e+10
2.529315709e+12
5.636755164e+12
1.018024461e+13
7.474072582e+12
2.379998408e+12
2.509153247e+12
7.356605688e+12
4.810391841e+12
5.538334936e+12
8.402353169e+12
5.478228288e+12
2.525564546e+12
4.736087816e+10
3.156916067e+10
5.525561585e+10
4.760278906e+10
4.736166583e+10
1.580023502e+10
5.524981098e+10
3.946414267e+10
3.945501577e+10
5.526634909e+10
2.366326432e+10
5.672678732e+10
1.583323099e+10
7.359759828e+10
8.460229586e+10
4.758788903e+10
5.09664382e+10
3.163878446e+10
4.527044321e+10
3.528061192e+10
3.951792862e+10
6.083681367e+10
4.742395856e+10
7.895463962e+10
3.15788659e+10
6.097604034e+10
5.245576589e+10
6.2917353e+10
7.099929546e+10
7.517804723e+10
4.358862916e+10
5.139725078e+10
9.002151632e+10
4.752108371e+10
5.282912562e+10
7.134533276e+10
2.552531151e+12
7.767934568e+12
5.276939924e+12
4.741012526e+12
7.380560532e+12
4.244468128e+10
5.11817393e+12
2.432653606e+12
4.911193139e+12
2.504868641e+12
3.704957242e+10
1.044254193e+12
5.352973157e+12
2.773679292e+12
8.613050292e+12
3.212530435e+12
8.651227387e+12
6.220651414e+12
9.245590765e+12
8.453436983e+12
9.82613885e+12
8.069200446e+12
5.774076887e+12
3.105443539e+12
1.583830024e+11
4.733132064e+10
4.733590719e+10
6.311800894e+10
5.524478016e+10
5.974547414e+10
6.312226908e+10
3.15447661e+10
5.205642756e+10
7.101250042e+10
4.735750585e+10
3.944215087e+10
3.944251976e+10
3.944618005e+10
4.735995719e+10
3.154472126e+10
3.947712753e+10
3.947057502e+10
3.154958081e+10
6.861097603e+10
3.602269083e+10
5.452028729e+10
7.082506296e+10
5.106368781e+10
6.283203093e+10
3.948277323e+10
5.995477363e+10
4.253854931e+10
3.506642433e+10
7.057675124e+10
6.950747952e+10
7.900718578e+10
6.711760158e+10
4.343250512e+10
4.769676195e+10
4.77598346e+10
3.627489661e+10
5.998825716e+10
5.489298151e+10
6.350292019e+10
7.844818614e+10
9.462267913e+10
5.204502245e+10
8.083443631e+10
1.126620964e+11
1.221941228e+11
1.267940424e+11
5.182487998e+10
7.653825706e+10
2.485193762e+12
4.670676247e+10
8.888882702e+10
1.018360919e+11
1.904037947e+11
7.223283133e+10
2.77182947e+11
9.194053924e+10
1.143660996e+11
8.648371639e+10
7.614315659e+10
2.637331574e+12
1.174320943e+13
7.741566899e+12
5.260340898e+12
6.035799413e+12
2.836717037e+12
2.988072535e+12
7.879890982e+12
6.227746138e+12
8.806208905e+12
3.387906837e+11
5.892727321e+11
7.444671639e+12
8.407697813e+12
1.127687427e+13
8.54509984e+12
5.134959392e+12
1.051557251e+13
4.738286168e+10
3.946566181e+10
3.944528896e+10
5.844579697e+10
4.73906034e+10
3.945296547e+10
2.366379902e+10
5.037890911e+10
4.739215667e+10
3.947805085e+10
6.311972633e+10
4.736961012e+10
3.944398625e+10
5.556562304e+10
5.516141744e+10
3.952508184e+10
4.319030288e+10
2.727410725e+10
6.590451848e+10
3.486286394e+10
2.686958674e+10
4.323272885e+10
4.249043314e+10
4.736688872e+10
3.535419099e+10
9.10216194e+10
6.383915217e+10
9.966296032e+10
6.10860828e+10
6.963918208e+10
5.735719456e+10
6.344813255e+10
8.377453098e+11
7.443732774e+10
1.580353649e+10
1.961893057e+12
4.887110702e+12
6.536888717e+12
5.664438248e+12
5.640824479e+12
2.698493032e+12
7.464262613e+12
3.550574861e+12
4.764333809e+12
8.145541783e+10
2.262314231e+12
9.194534234e+10
9.238998861e+11
6.28676158e+12
2.628195077e+12
6.310085006e+10
3.943574527e+10
4.732857699e+10
6.312087704e+10
4.384365395e+10
7.103109903e+10
3.946837329e+10
4.38243497e+10
2.368528101e+10
5.177197278e+10
1.577274831e+10
3.156436677e+10
4.737476695e+10
3.157326362e+10
2.369246663e+10
7.263328398e+10
4.242400495e+10
4.233976266e+10
5.261274381e+10
4.7277868e+10
4.739178583e+10
6.01316186e+10
5.528759916e+10
1.924885115e+10
5.67389378e+10
9.590902647e+10
5.046556826e+10
5.08149306e+10
7.727229094e+10
5.884166793e+10
6.371051335e+10
6.330353445e+10
7.801714157e+10
6.112106857e+10
8.119743947e+10
9.351420847e+10
8.239735543e+10
7.972554143e+12
7.947874789e+12
7.919799483e+12
2.827158318e+12
5.509889888e+12
5.139927524e+12
2.555465017e+12
8.442926209e+11
2.999745003e+12
7.467726741e+12
7.387177493e+12
7.562211528e+12
9.470522803e+11
7.629357728e+12
8.956526738e+12
5.86773708e+12
3.692382503e+10
5.524367665e+10
4.737976459e+10
5.525824925e+10
6.311769328e+10
6.311586781e+10
4.73381648e+10
4.73250816e+10
4.736791303e+10
2.366591876e+10
6.8830266e+10
4.736269205e+10
6.315185911e+10
5.524569427e+10
5.574963163e+10
4.787370403e+10
5.274777264e+10
7.05917078e+10
6.387114399e+10
5.692541756e+10
4.518113969e+10
7.3897761e+10
5.147555721e+10
6.068170808e+10
4.570923754e+10
6.330352974e+10
6.15117543e+10
8.939276599e+10
5.062360913e+10
4.892511557e+10
4.956849348e+10
5.525011257e+10
7.675558381e+10
5.807289509e+10
4.637486767e+10
9.794233189e+10
7.311230811e+10
8.888072889e+10
6.159857977e+10
2.019859065e+11
6.261220033e+10
8.303544516e+10
1.450715445e+11
6.975926238e+10
9.956746071e+10
5.637094711e+10
1.121087967e+11
1.284067285e+11
5.873657697e+10
9.740374078e+10
1.085406471e+11
9.184570061e+10
6.679353697e+10
2.625748252e+12
7.920462882e+12
2.517579559e+12
1.100710603e+11
7.793114255e+12
8.790804739e+12
7.442817079e+12
1.765554452e+11
7.858390319e+12
3.901715897e+12
2.687595033e+12
8.775838866e+12
8.43605414e+10
9.888797748e+12
3.751837115e+12
2.052489955e+11
4.735542045e+10
7.143893188e+10
2.367235214e+10
5.522193062e+10
3.951262129e+10
4.734292795e+10
2.366060807e+10
3.16092924e+10
4.748759873e+10
1.577288374e+10
6.310571753e+10
2.368143943e+10
3.943816179e+10
2.372603662e+10
6.659422772e+10
6.971495385e+10
4.372387614e+10
3.729004802e+10
3.579695428e+10
7.068013155e+10
3.637342111e+10
6.274910987e+10
5.11671935e+10
4.914939398e+10
5.114091369e+10
3.67056111e+10
4.19519109e+10
3.619943258e+10
1.819116014e+11
7.172405316e+10
6.062498671e+10
9.363496119e+10
7.076201033e+10
6.536788223e+10
7.54933842e+10
2.850754148e+10
4.143858149e+10
2.548679619e+11
6.03167129e+12
6.100657382e+12
5.891154831e+12
9.240006121e+12
2.720155552e+11
1.207132626e+13
2.939604011e+11
3.831133978e+12
1.297967423e+13
3.639344877e+12
8.647625447e+11
5.602048066e+12
4.791459217e+12
3.943485137e+10
3.158648949e+10
4.734649595e+10
3.946965825e+10
3.943898748e+10
4.734933953e+10
3.155078978e+10
3.943499354e+10
3.943975224e+10
3.944719111e+10
4.735721198e+10
3.945657639e+10
4.74173962e+10
3.156953964e+10
5.532146897e+10
5.242685781e+10
4.864842783e+10
3.78296344e+10
3.616222609e+10
4.572255778e+10
4.297606652e+10
4.937546369e+10
5.035199244e+10
4.327450081e+10
3.455143518e+10
4.648874226e+10
5.412484408e+10
4.267290236e+10
7.531899776e+10
1.56735883e+11
5.100189717e+10
4.766530065e+10
5.690760737e+10
5.07344172e+10
5.265408765e+10
1.734705957e+11
1.730923753e+11
7.796975092e+10
7.978224638e+10
9.926127585e+11
5.738721512e+10
7.730104365e+10
6.007216087e+10
2.26262597e+12
1.506799308e+11
5.477705829e+12
4.379836694e+12
5.162321914e+12
5.081338901e+12
2.97206676e+12
2.574521556e+12
5.83694392e+12
1.459372305e+11
6.204603819e+12
6.748004798e+12
1.095387834e+13
6.782486363e+12
6.002021391e+12
1.390839852e+13
1.385653649e+13
8.381954451e+12
9.13682965e+12
1.536498774e+13
2.951295413e+12
5.940038801e+12
1.004142599e+13
6.163256602e+12
4.740463275e+10
5.526630664e+10
6.313514864e+10
6.781250355e+10
5.53087468e+10
5.525132139e+10
6.322787966e+10
4.739829683e+10
5.524673315e+10
4.739088706e+10
6.315331957e+10
5.523763726e+10
5.525294644e+10
3.947948817e+10
4.446348953e+10
3.948717298e+10
6.321677738e+10
5.520617958e+10
4.732946562e+10
4.732609452e+10
4.73516346e+10
5.224119253e+10
6.215976802e+10
6.650618315e+10
5.875353831e+10
5.987116755e+10
9.7257946e+10
7.189514444e+10
7.229334192e+10
8.313248985e+10
5.092009985e+10
4.500923972e+10
6.420090135e+10
7.480024455e+10
4.738263053e+10
6.633593441e+10
5.320315106e+10
7.504556891e+10
7.140030242e+10
5.753729262e+10
6.154935645e+10
5.259377439e+10
6.086145052e+10
2.619768094e+12
6.935112341e+10
2.484175669e+11
7.165091669e+10
4.22518988e+10
1.012100225e+11
2.71572419e+12
6.480619696e+10
1.06968114e+11
6.096170421e+10
1.53515291e+11
1.071639797e+11
3.382277241e+12
8.517187846e+12
2.575270227e+12
5.009173324e+12
2.684197137e+12
2.765863105e+12
1.085177144e+13
6.123008999e+11
1.971650681e+11
8.544150674e+12
5.422151285e+12
7.872077164e+12
7.835706106e+12
3.024719255e+12
5.076303587e+12
1.696407117e+11
7.958354316e+12
5.907437804e+12
2.713734386e+12
4.734851412e+10
4.735668752e+10
7.102335603e+10
6.798202143e+10
3.94507943e+10
3.949160357e+10
3.945266888e+10
4.733061897e+10
3.946910502e+10
3.156913386e+10
3.945074263e+10
6.018697011e+10
5.379882271e+10
5.891789854e+10
5.132027444e+10
4.329112071e+10
5.759537883e+10
5.002702441e+10
2.372012654e+10
4.097279632e+10
7.174581244e+10
5.337921112e+10
6.098764002e+10
6.142471979e+10
6.493497213e+10
1.626932531e+11
5.310451798e+10
7.295317908e+10
5.925991161e+10
5.810782474e+10
1.18449086e+12
7.935219231e+10
1.09253793e+11
1.300238374e+12
6.92874584e+10
4.828728175e+10
2.876663116e+10
1.158208204e+11
1.773274012e+11
1.806924446e+11
8.490224385e+12
1.175639303e+13
5.498728467e+12
3.496224559e+12
2.09289444e+12
5.810036229e+12
2.357863413e+12
9.221959676e+12
4.721714356e+12
4.665379096e+12
3.769898514e+10
7.533379448e+12
6.313479294e+10
3.946119849e+10
5.522698775e+10
3.944374347e+10
4.734071638e+10
4.732751463e+10
4.210280203e+10
3.154969076e+10
3.946154837e+10
3.155505248e+10
5.54537919e+10
4.735485824e+10
4.732419609e+10
4.198143852e+10
2.827859821e+10
5.39733692e+10
8.110494345e+10
3.819202125e+10
6.007476561e+10
4.371200413e+10
5.195220144e+10
6.856509653e+10
5.024881888e+10
7.671108694e+10
5.646497944e+10
2.369232792e+10
5.725785132e+10
7.911344903e+10
5.10263752e+10
1.959051552e+11
8.543855975e+10
6.67856131e+11
7.842060167e+10
3.397250509e+10
6.025661837e+10
8.273241212e+10
7.686695919e+10
6.872886729e+10
7.373415015e+10
5.559852325e+12
5.295199751e+11
5.301016542e+12
3.329504138e+12
2.203846001e+12
2.880053073e+12
1.164801447e+12
7.945322878e+11
9.047890202e+12
3.881184846e+12
3.003919639e+12
5.44938713e+12
2.934185269e+12
7.797151727e+12
8.272692502e+12
1.111683235e+13
9.269379562e+12
1.132667794e+13
1.236516597e+13
2.804362537e+12
1.315747282e+13
7.90670441e+12
1.266124881e+13
1.131069483e+13
1.591121687e+13
1.295241562e+13
9.929710619e+12
5.858050907e+12
6.588996599e+12
8.481311833e+12
1.116064999e+13
5.826198651e+12
1.446644611e+13
1.129157939e+13
3.271463692e+12
9.274829394e+12
9.20740695e+12
6.804916666e+12
6.91256027e+12
6.379100917e+12
1.137071906e+13
1.274302937e+13
9.35692374e+12
8.481612665e+12
8.894480277e+12
9.071560526e+12
1.125544774e+13
1.150724716e+13
8.598441301e+12
1.477598647e+13
9.384949326e+12
9.219666744e+12
1.377793557e+13
1.184909322e+13
9.2391604e+12
1.572123881e+13
9.336855123e+12
9.139028279e+12
6.115894642e+12
1.173805094e+13
5.253500471e+12
8.602785178e+12
1.415211849e+13
6.029175169e+12
1.552635387e+13
6.202303341e+12
8.579821816e+12
9.198358961e+12
6.346247961e+12
1.127963152e+13
1.155600381e+13
2.516165767e+12
5.361225607e+12
8.653146333e+12
9.478709081e+12
1.353174355e+13
1.104309824e+13
5.251786859e+12
8.176707012e+12
1.084811775e+13
1.082546659e+13
1.053643497e+13
5.478534899e+12
8.666561977e+12
5.983953933e+12
1.170486691e+13
1.129429729e+13
8.867618015e+12
1.077744117e+13
8.491409652e+12
8.384455041e+12
7.813085744e+12
1.06284786e+13
1.029283011e+13
1.332418808e+13
1.064299934e+13
7.907438798e+12
8.016723126e+12
8.302078177e+12
8.434687456e+12
1.171391077e+13
8.794663129e+12
5.221078981e+12
1.473356808e+13
1.378910714e+13
1.390730766e+13
8.241980075e+12
8.095982983e+12
1.033354117e+13
8.165779773e+12
1.944496291e+13
7.567051322e+12
7.919206304e+12
1.171058977e+13
5.157255824e+12
1.028550954e+13
1.21203766e+13
1.103647109e+13
1.158689658e+13
1.472587767e+13
7.094258318e+12
8.777051368e+12
6.223381732e+12
7.970085455e+12
5.396307217e+12
1.365458928e+13
1.034220827e+13
4.691546135e+12
1.072382618e+13
4.737450645e+12
1.405561957e+13
8.81694181e+12
1.386298249e+13
1.442284798e+13
8.777972751e+12
8.837155599e+12
1.080370536e+13
1.130475578e+13
6.208750778e+12
1.189073052e+13
9.320234409e+12
8.72987112e+12
8.531892269e+12
1.004377508e+13
6.05236187e+12
1.992939835e+13
5.302338361e+12
4.018820659e+12
1.162790721e+13
1.186970642e+13
5.989055981e+12
7.771077016e+12
9.472947099e+12
1.634234924e+13
3.549264738e+11
1.386052413e+13
1.315786352e+13
7.214027345e+12
6.162521891e+12
6.361598873e+12
1.093441752e+13
8.284069334e+12
3.726889143e+12
5.836011832e+12
3.014227576e+12
8.532160218e+12
1.115952399e+13
9.202997896e+12
8.72342845e+12
1.164499679e+13
5.671529351e+12
9.466741839e+12
9.053133989e+12
8.106166123e+12
1.019473473e+13
5.879052253e+12
7.730711614e+12
1.349635749e+13
7.883532547e+12
8.074480864e+12
8.725829485e+12
5.499275073e+12
1.076200068e+13
9.385313058e+12
5.169051595e+12
9.744578766e+12
8.214589559e+12
5.665921e+12
8.094831031e+12
1.055922189e+13
8.787755747e+12
3.052771735e+12
9.125185316e+12
8.439582596e+12
1.040735954e+13
7.170786825e+12
1.478937047e+13
3.889561699e+12
9.419682213e+12
1.180075597e+13
8.955714805e+12
6.50543317e+12
7.135880157e+12
9.750318305e+12
1.195206505e+13
8.019722788e+12
7.6557703e+12
8.12448671e+12
4.85104686e+12
7.813228933e+12
4.604581911e+12
1.758964854e+13
5.272769144e+12
6.879267783e+12
9.022837812e+12
1.31896524e+13
1.062214937e+13
8.313294347e+12
1.178250802e+13
8.866533003e+12
4.967264922e+12
9.012712751e+12
1.734876228e+13
3.228672226e+12
1.447386043e+13
5.608674119e+12
1.396623413e+13
1.109312865e+13
8.599745707e+12
2.680714913e+12
5.406917327e+12
1.232447468e+13
5.720617929e+12
2.94057654e+12
1.066906235e+13
5.698210265e+12
5.599431257e+12
8.92466379e+12
1.101755759e+13
8.199465228e+12
8.372950325e+12
8.435155922e+12
1.149237563e+13
1.107347785e+13
9.484735161e+12
1.136367935e+13
1.135745031e+13
8.444200245e+12
1.143393889e+13
1.069056066e+13
5.72621894e+12
1.366075313e+13
8.528424302e+12
1.084576377e+13
1.619700258e+13
7.993750788e+12
5.693635757e+12
6.884925086e+11
5.319685829e+12
1.408655607e+13
1.662833792e+13
1.486445342e+13
1.234793705e+13
1.025594449e+13
8.58036846e+12
1.479261259e+13
8.921512628e+12
8.165051283e+12
5.429182979e+12
1.065829061e+13
8.71196516e+12
1.331406124e+12
1.24478967e+13
5.730438674e+12
1.24164355e+13
5.780457908e+12
1.203123193e+13
1.416770257e+13
8.64310081e+12
8.654288632e+12
1.523605411e+13
8.83074014e+12
8.859040074e+12
1.257345603e+13
1.531123237e+13
5.778399983e+12
6.307044404e+12
9.4910237e+12
9.694403015e+12
1.554931405e+13
8.279063916e+12
8.16332252e+12
1.515281466e+13
8.412938513e+12
1.078367228e+13
1.319379869e+13
8.712034255e+12
1.169571665e+13
1.165651488e+13
1.092084923e+13
9.082591065e+12
1.471328953e+13
1.117203321e+13
1.288635317e+13
8.942876899e+12
1.499562913e+13
1.042684272e+13
9.418635271e+12
1.5424985e+13
1.914420386e+13
9.340027191e+12
8.890853137e+12
1.891558174e+13
9.282304658e+12
1.631882483e+13
9.405629417e+12
9.481047692e+12
9.351338383e+12
9.975017176e+12
1.529789632e+13
9.934390552e+12
9.324881222e+12
1.267707706e+13
3.458027092e+12
5.975187799e+12
6.990449973e+12
6.767849497e+12
8.973293097e+12
6.138464498e+12
1.104161241e+13
1.84815141e+13
8.801885378e+12
1.407907844e+13
9.748520122e+12
9.436271137e+12
1.588948661e+13
1.244345184e+13
1.272225416e+13
1.341803986e+13
1.610668246e+13
1.905555464e+13
1.010310193e+13
9.736727202e+12
1.210108208e+13
1.070596253e+13
9.630434837e+12
1.201609068e+13
8.426658277e+12
9.27719035e+12
1.205771627e+13
6.096838692e+12
1.224511178e+13
9.49644183e+12
8.555234734e+12
1.078689569e+13
2.721411895e+12
9.13165999e+12
5.314658339e+12
1.761363827e+13