/*--------------------------------*- C++ -*----------------------------------*\
  =========                 |
  \\      /  F ield         | OpenFOAM: The Open Source CFD Toolbox
   \\    /   O peration     | Website:  https://openfoam.org
    \\  /    A nd           | Version:  7
     \\/     M anipulation  |
\*---------------------------------------------------------------------------*/
FoamFile
{
    version     2.0;
    format      ascii;
    class       scalarField;
    location    "2/lagrangian/coalCloud1";
    object      QComb;
}
// * * * * * * * * * * * * * * * * * * * * * * * * * * * * * * * * * * * * * //


2000
(
0
0
0
0
0
0
0
0
0
0
0
0
0
0
0
0
0
0
0
0
0
0
0
0
0
0
0
0
0
0
0
0
0
0
0
0
0
0
0
0
0
0
0
0
0
0
0
0
0
0
0
0
0
0
0
0
0
0
0
0
0
0
0
0
0
0
0
0
0
0
0
0
0
0
0
0
0
0
0
0
0
0
0
0
0
0
0
0
0
0
0
0
0
0
0
0
0
0
0
0
0
0
0
0
0
0
0
0
0
0
0
0
0
0
0
0
0
0
0
0
0
0
0
0
0
0
0
0
0
0
0
0
0
0
0
0
0
0
0
0
0
0
0
0
0
0
0
0
0
0
0
0
0
0
0
0
0
0
0
0
0
0
0
0
0
0
0
0
0
0
0
0
0
0
0
0
0
0
0
0
0
0
0
0
0
0
0
0
0
0
0
0
0
0
0
0
0
0
0
0
0
0
0
0
0
0
0
0
0
0
0
0
0
0
0
0
0
0
0
0
0
0
0
0
0
0
0
0
0
0
0
0
0
0
0
0
0
0
0
0
0
0
0
0
0
0
0
0
0
0
0
0
0
0
0
0
0
0
0
0
0
0
0
0
0
0
0
0
0
0
0
0
0
0
0
0
0
0
0
0
0
0
0
0
0
0
0
0
0
0
0
0
0
0
0
0
0
0
0
0
0
0
0
0
0
0
0
0
0
0
0
0
0
0
0
0
0
0
0
0
0
0
0
0
0
0
0
0
0
0
0
0
0
0
0
0
0
0
0
0
0
0
0
0
0
0
0
0
0
0
0
0
0
0
0
0
0
0
0
0
0
0
0
0
0
0
0
0
0
0
0
0
0
0
0
0
0
0
0
0
0
0
0
0
0
0
0
0
0
0
0
0
0
0
0
0
0
0
0
0
0
0
0
0
0
0
0
0
0
0
0
0
0
0
0
0
0
0
0
0
0
0
0
0
0
0
0
0
0
0
0
0
0
0
0
0
0
0
0
0
0
0
0
0
0
0
0
0
0
0
0
0
0
0
0
0
0
0
0
0
0
0
0
0
0
0
0
0
0
0
0
0
0
0
0
0
0
0
0
0
0
0
0
0
0
0
0
0
0
0
0
0
0
0
0
0
0
0
0
0
0
0
0
0
0
0
0
0
0
0
0
0
0
0
0
0
0
0
0
0
0
0
0
0
0
0
0
0
0
0
0
0
0
0
0
0
0
0
0
0
0
0
0
0
0
0
0
0
0
0
0
0
0
0
0
0
0
0
0
0
0
0
0
0
0
0
0
0
0
0
0
0
0
0
0
0
0
0
0
0
0
0
0
0
0
0
0
0
0
0
0
0
0
0
0
0
0
0
0
0
0
0
0
0
0
0
0
0
0
0
0
0
0
0
0
0
0
0
0
0
0
0
0
0
0
0
0
0
0
0
0
0
0
0
0
0
0
0
0
0
0
0
0
0
0
0
0
0
0
0
0
0
0
0
0
0
0
0
0
0
0
0
0
0
0
0
0
0
0
0
0
0
0
0
0
0
0
0
0
0
0
0
0
0
0
0
0
0
0
0
0
0
0
0
0
0
0
0
0
0
0
0
0
0
0
0
0
0
0
0
0
0
0
0
0
0
0
0
0
0
0
0
0
0
0
0
0
0
0
0
0
0
0
0
0
0
0
0
0
0
0
0
0
0
0
0
0
0
0
0
0
0
0
0
0
0
0
0
0
0
0
0
0
0
0
0
0
0
0
0
0
0
0
0
0
0
0
0
0
0
0
0
0
0
0
0
0
0
0
0
0
0
0
0
0
0
0
0
0
0
0
0
0
0
0
0
0
0
0
0
0
0
0
0
0
0
0
0
0
0
0
0
0
0
0
0
0
0
0
0
0
0
0
0
0
0
0
0
0
0
0
0
0
0
0
0
0
0
0
0
0
0
0
0
0
0
0
0
0
0
0
0
0
0
0
0
0
0
0
0
0
0
0
0
0
0
0
0
0
0
0
0
0
0
0
0
0
0
0
0
0
0
0
0
0
0
0
0
0
0
0
0
0
0
0
0
0
0
0
0
0
0
0
0
0
0
0
0
0
0
0
0
0
0
0
0
0
0
0
0
0
0
0
0
0
0
0
0
0
0
0
0
0
0
0
0
0
0.03321940018
0
0
0
0
0
0
0
0
0
0
0
0
0
0
0
0
0
0
0
0
0
0
0
0
0
0
0
0
0
0
0
0
0
0
0
0
0
0
0
0
0
0
0
0
0
0
0
0
0
0
0
0
0
0
0
0
0
0
0
0
0
0
0
0
0
0
0
0
0
0
0
0
0
0
0
0
0
0
0
0
0
0
0
0
0
0
0
0
0
0
0
0
0
0
0
0
0
0
0
0
0
0
0
0
0
0
0
0
0
0
0
0
0
0
0
0
0
0
0
0
0
0
0
0
0
0
0
0
0
0
0
0
0
0
0
0
0
0
0
0
0
0
0
0
0
0
0
0
0
0
0
0
0
0
0
0
0
0
0
0
0
0
0
0
0
0
0
0
0
0
0
0
0
0
0
0
0
0
0
0
0
0
0
0
0
0
0
0
0
0
0
0
0
0
0
0
0
0
0
0
0
0
0
0
0
0
0
0
0
0
0
0
0
0
0
0
0
0
0
0
0
0
0
0
0
0
0
0
0
0
0
0
0
0
0
0
0
0
0
0
0
0
0
0
0
0
0
0
0
0
0
0
0
0
0
0
0
0
0
0
0
0
0
0
0
0
0
0
0
0
0
0
0
0
0
0
0
0
0
0
0
0
0
0
0
0
0
0
0
0
0
0
0
0
0
0
0
0
0
0
0
0
0
0
0
0
0
0
0
0
0
0
0
0
0
0
0
0
0
0
0
0
0
0
0
0
0
0
0
0
0
0
0
0
0
0
0
0
0
0
0
0
0
0
0
0
0
0
0
0
0
0
0
0
0
0
0
0
0
0
0
0
0
0
0
0
0
0
0
0
0
0
0
0
0
0
0
0
0
0
0
0
0
0
0
0
0
0
0
0
0
0
0
0
0
0
0
0
0
0
0
0
0
0
0
0
0
0
0
0
0
0
0
0
0
0
0
0
0
0
0
0
0
0
0
0
0
0
0
0
0
0
0
0
0
0
0
0
0
0
0
0
0
0
0
0
0
0
0
0
0
0
0
0
0
0
0
0
0
0
0
0
0
0
0
0
0
0
0
0
0
0
0
0
0
0
0
0
0
0
0
0
0
0
0
0
0
0
0
0
0
0
0
0
0
0
0
0
0
0
0
0
0
0
0
0
0
0
0
0
0
0
0
0
0
0
0
0
0
0
0
0
0
0
0
0
0
0
0
0
0
0
0
0
0
0
0
0
0
0
0
0
0
0
0
0
0
0
0
0
0
0
0
0
0
0
0
0
0
14.31801712
13.33691085
15.17104627
0
18.96884236
14.3093589
15.10902352
15.03124544
18.74248629
14.07660428
15.23432234
15.55384733
14.11877063
13.61672594
14.68221757
21.50892267
0
14.83740772
15.09520243
0
0
16.40325395
15.80372088
16.03514844
0
0
16.24040861
20.48890203
19.37888445
15.8861891
15.95868409
15.77526127
20.48946586
19.41448769
15.52679017
15.49996088
24.40752152
22.65382122
16.84606732
22.91636912
22.96487708
16.25509976
15.26718394
16.92281978
22.66832625
24.55237735
17.54894263
17.17881338
17.09085804
24.77476057
23.49921965
18.7172074
18.09615907
16.07541772
16.12635925
15.14121397
13.58312065
17.39830364
15.72384091
12.2765622
15.71548611
14.28447384
17.43525819
14.39579358
15.1611925
14.09113498
16.52076268
19.16473164
17.43029405
17.92446255
17.02079734
17.44698402
17.45837841
17.64310789
14.02270899
16.31181924
14.67332536
15.4768686
15.75437656
17.08252601
19.03955782
18.59601236
18.53934603
15.61586346
18.86879434
16.76198074
15.20861579
17.04789824
16.13390633
16.84744817
15.93740089
19.64664287
16.2144655
15.0292513
17.8141306
15.68759752
14.19241193
15.51774702
15.42787144
13.27291041
12.21769221
20.31720883
12.78324095
12.79789241
17.93859738
18.2031909
16.88464552
15.47124833
16.95655382
18.16842609
17.21027056
17.73109396
14.1441743
14.40915765
21.73986304
17.02684799
20.26815302
13.70619795
14.18813295
21.75799018
18.6300198
16.7325437
17.32962282
17.05679679
0
19.31043886
16.87429257
17.95733653
18.53973082
15.03798542
20.66782519
19.6661899
15.79307872
13.92853594
15.97209578
0
0
15.63958419
15.38920495
14.57001705
15.79367689
0
19.80281779
14.82507124
15.6389029
16.35485942
16.74808644
15.915952
18.41700758
19.68929875
20.62803107
19.8196955
16.89387443
17.15599401
22.6846378
16.95692626
16.85653761
20.97639514
17.02704394
16.97534248
22.10242829
16.8824349
18.50919826
21.45832325
15.71277711
16.40583589
0
13.26684417
12.54023269
0
12.39281694
17.65799057
17.45892402
16.13409367
18.14203919
18.69270778
0
0
18.71773284
17.60713315
0
19.92514483
0
13.35317136
19.05790374
19.7796218
15.34409987
12.85510847
11.72579055
18.04947383
13.35335805
14.12061368
18.53982453
19.90204791
18.3892033
18.90939704
20.52900041
18.33843545
15.78189964
21.54278997
20.71356141
22.11539414
15.4994014
20.79192261
18.48729467
13.97505807
18.15244553
16.84868519
17.25049119
14.20973691
17.45200114
17.00423854
14.2688593
16.47939506
17.48259896
16.12185959
16.80082015
17.60748525
12.50341543
20.91145882
18.80068621
19.29300758
17.37616017
19.67133857
18.93134716
14.49800152
15.022315
15.96963655
19.80639987
18.33063086
20.60577382
18.76653889
15.65312371
19.9005007
15.70537283
19.4627432
19.80503378
13.62991604
21.25677268
16.26021141
0
10.85031614
12.14692017
12.0241306
10.89017894
11.72087032
15.52220879
11.56389995
12.03340203
10.79164158
10.2668296
11.63848447
15.94684845
17.70566206
0
14.21334831
16.04660424
14.6973417
16.47326693
19.30667391
14.10643427
15.38930949
15.75591326
17.93375626
16.17754945
17.23813309
16.79111824
0
0
16.38923496
17.57444295
18.00677626
13.09518508
12.35561351
16.51045606
12.86470105
13.08203361
12.22017617
17.57753681
17.18661724
19.83871642
20.3869949
17.42451606
16.97465038
16.78443632
20.05872775
16.94261412
17.0757094
18.09902704
19.783627
17.67631153
18.46856542
19.166707
18.95000062
18.24591083
19.33286264
16.73361596
17.95627898
19.64247987
19.53728167
21.57144424
12.44315295
11.11850289
18.16879456
11.28772907
18.77795393
17.76607543
17.34179825
18.14077782
0
15.25081938
16.95293537
13.62454178
13.86576837
13.2472635
21.46315583
18.98072874
12.58593455
12.39384843
20.11356632
21.67051266
19.39592706
20.45823098
19.64152841
20.88004292
20.0256314
18.7434268
16.92979068
14.68591739
16.09462311
18.34474337
14.81259774
16.35859643
20.92895044
-1.291504704
-0.7067179078
15.2441603
14.96014807
16.7388858
14.56039793
14.51545145
13.34047502
13.33446516
14.70162648
14.22469994
13.0003477
18.68795963
0
19.51472989
14.42473541
0
15.00145708
16.6404047
16.09929669
19.05845193
16.37519619
16.94391803
16.28319281
16.03274173
15.03826352
14.75716359
16.08724662
14.81494823
15.57243697
18.49500053
19.24626423
21.13171944
19.86033489
20.36796717
20.11859401
20.93869367
20.35997726
20.19399275
19.42501873
15.2312791
15.9514163
16.230171
16.66141934
16.74836199
17.55200648
15.94851286
17.36123083
18.01317281
18.21569783
17.32818653
16.63097823
18.7653316
0
13.02017904
12.08759693
17.49781292
18.73889833
13.31818734
14.15829161
12.6894541
16.8421443
18.04643126
17.76924888
12.37018295
13.05171862
13.69468409
12.32470491
11.66631907
17.25016474
17.68209723
19.22307539
16.32268704
18.16403845
19.60024135
18.25371408
19.27894201
13.35125032
18.39414715
20.45013841
13.43074597
14.81050211
19.0492988
14.0451698
15.67515017
19.78836008
18.70093713
13.93477903
15.94550277
15.82845685
14.92748032
15.91028482
15.89327769
0
14.68752143
13.34567096
16.76434031
13.73769473
15.25465947
0
13.42034464
17.89511095
14.87498958
12.75412269
17.25412186
12.9092008
13.79377624
17.81728174
16.31451104
16.82524144
16.82426683
14.48874794
16.00036911
16.5378571
16.58492997
15.15582187
15.43100733
13.85610301
19.62987848
14.15075892
18.9096006
21.08921895
19.32649805
0
0
17.28949076
16.58619659
0
20.66324611
17.59671541
17.53298684
0
15.49023067
13.8999735
19.54942871
17.86132764
0
15.20949331
18.19229159
13.72998129
20.80597457
26.07204538
19.18088086
18.7599975
20.37652472
17.90710633
19.56248351
19.3303867
18.66717338
18.01476055
18.74264849
17.44912608
20.77913248
18.40195399
-2.724888376
15.64530928
20.67782699
17.79740696
17.34559438
)


// ************************************************************************* //
