/*--------------------------------*- C++ -*----------------------------------*\
  =========                 |
  \\      /  F ield         | OpenFOAM: The Open Source CFD Toolbox
   \\    /   O peration     | Website:  https://openfoam.org
    \\  /    A nd           | Version:  7
     \\/     M anipulation  |
\*---------------------------------------------------------------------------*/
FoamFile
{
    version     2.0;
    format      ascii;
    class       scalarField;
    location    "2/lagrangian/coalCloud1";
    object      QDry;
}
// * * * * * * * * * * * * * * * * * * * * * * * * * * * * * * * * * * * * * //


2000
(
2.673896981e-09
1.750776775e-08
2.711158464e-08
1.718173865e-08
6.580563823e-08
9.79449202e-08
3.513331832e-07
1.161870335e-08
1.430787614e-08
9.194857808e-08
0
1.399745606e-07
3.699029392e-07
1.418984082e-08
2.61212454e-08
2.131198015e-07
0
2.040765736e-06
2.068528872e-06
6.011641789e-08
4.680513109e-08
2.424952031e-07
2.205695793e-07
2.181472746e-06
4.387496688e-08
5.050316775e-08
1.264979365e-08
5.754605657e-09
4.413201583e-08
5.393275077e-08
1.371883648e-08
5.668682982e-08
1.106043962e-07
9.889847099e-08
3.71716838e-07
0
1.193058293e-08
1.340925289e-07
1.489589807e-06
3.653300608e-07
0
3.547684141e-08
2.634615005e-07
2.151280877e-06
0
1.595773992e-07
6.119281274e-08
3.308553732e-08
0
2.132121576e-08
0
4.097924465e-09
5.723139037e-08
3.814472051e-07
3.328876916e-08
1.212326991e-09
1.745307037e-08
2.332245842e-10
1.729751933e-08
2.267518648e-09
8.066935823e-06
8.044117787e-06
2.399937595e-08
7.529919387e-06
8.213944505e-06
4.725364877e-09
5.271101544e-08
2.235516612e-07
3.05890558e-09
7.555175849e-07
6.851887353e-08
1.527010272e-08
3.850468102e-07
4.907435618e-07
1.060975161e-10
3.465701923e-07
3.809748789e-06
1.486672361e-07
3.262560089e-07
1.199421989e-07
9.061565509e-06
0
3.536082598e-06
0
1.278089758e-06
3.539435625e-06
3.455536794e-06
1.232959254e-06
2.916191886e-08
4.541798586e-08
2.061149121e-08
3.435441739e-08
6.775169593e-08
1.300472528e-08
2.281248899e-08
7.82794857e-08
1.912381572e-08
3.311807065e-08
3.551963834e-06
3.04506876e-06
1.323393307e-06
3.438566824e-06
3.257696605e-06
9.750576383e-09
2.521626342e-08
1.310328307e-08
2.851759899e-08
4.694918766e-08
1.011744464e-07
1.76522799e-05
1.714117944e-05
3.766247055e-08
1.724684563e-05
1.706873716e-05
1.309579384e-07
2.523086332e-09
1.00296482e-07
8.731543878e-08
1.020059794e-08
3.635045107e-08
1.386345041e-09
7.305741229e-09
0
1.687068746e-08
5.482386588e-08
1.919795399e-05
1.561649671e-05
1.748531311e-06
2.27026748e-05
1.700527937e-05
2.143173851e-07
3.657707961e-08
1.816458052e-07
6.713281013e-09
7.339548856e-08
0
5.621941304e-08
4.598328521e-09
0
7.646557505e-08
1.89544289e-08
2.896312046e-08
6.066326443e-09
2.523848669e-08
1.297331545e-08
9.380419406e-09
3.29562406e-08
1.928334013e-08
1.638232641e-08
6.62023269e-08
3.372168884e-08
3.12231863e-08
1.111896361e-07
1.134258559e-07
2.934212925e-08
0
2.480837791e-07
8.9363761e-09
2.719179192e-08
7.257938849e-09
1.071596407e-08
2.393389758e-08
2.712198109e-08
1.990013414e-08
2.416147058e-08
9.199176862e-08
2.96022958e-08
0
0
2.221696685e-07
0
0
0
0
1.459895739e-08
0
5.625284491e-08
2.356989257e-08
4.163815776e-08
1.771406217e-07
9.942358713e-07
1.856043162e-07
0
2.484715824e-07
6.691931893e-07
6.644302609e-07
4.65348881e-07
5.476979167e-07
3.460698764e-08
7.686215881e-07
1.144829994e-07
1.100915965e-07
2.578401673e-07
7.011987646e-09
3.661143715e-08
2.326194063e-08
2.785752374e-08
0
1.28205214e-06
1.259500055e-08
1.358043083e-06
0
6.202021445e-08
0
4.435397492e-08
4.774318854e-08
9.26476132e-08
0
3.598593209e-08
8.15511043e-08
1.440589366e-06
1.616629635e-06
0
7.522093024e-08
4.003419741e-07
2.317195795e-08
2.678293809e-08
1.689822743e-08
1.306576908e-06
3.574438764e-08
7.967579579e-10
1.342712521e-06
0
2.819826569e-08
3.666507302e-08
3.40505752e-08
5.316708356e-09
7.528800897e-08
3.033117226e-07
1.499198784e-06
1.206253209e-07
2.988754347e-07
1.326720261e-07
1.543824492e-06
4.913531201e-08
0
0
3.61614864e-08
1.036350356e-08
1.479358357e-10
0
3.932953511e-11
0
1.904096288e-09
1.049976879e-08
3.093910414e-08
0
8.332617888e-09
6.012370139e-09
0
0
0
0
9.670586236e-09
0
5.238159764e-10
7.774222243e-08
1.063946475e-07
0
6.385523469e-08
3.239829564e-07
1.514755724e-08
2.011575398e-07
2.064333412e-07
0
6.959418468e-08
0
0
4.312527329e-08
6.266587235e-07
2.444821957e-08
0
1.09044538e-06
5.672240554e-07
1.35645184e-06
0
1.096944639e-06
2.345555954e-07
2.333292266e-07
0
2.843546594e-07
2.05548027e-07
0
3.869292238e-07
0
1.291427182e-07
1.538839043e-07
3.915530767e-07
3.829375883e-07
1.626256676e-07
7.230400235e-07
1.345887197e-06
1.191504442e-06
2.648032874e-07
1.765204796e-07
1.894014765e-06
6.56095954e-08
2.519848167e-07
1.486821677e-07
1.589032946e-07
3.894855459e-07
0
0
1.56923271e-08
1.217695945e-08
2.370352521e-08
0
0
1.262951705e-07
0
6.234551585e-08
0
2.77241803e-08
3.506474722e-07
0
8.226402448e-08
3.641751205e-07
4.099168688e-07
4.116844735e-07
0
3.120038996e-08
1.996806272e-07
9.163109567e-08
3.089691322e-08
0
0
1.730122862e-06
1.932178653e-07
1.156742324e-07
0
1.0280252e-06
2.36395184e-08
3.200982809e-08
6.947098226e-08
1.718000843e-08
1.068242649e-08
1.380628977e-07
1.18759762e-08
2.558288551e-08
5.631017726e-08
1.403647784e-06
0
6.869157685e-07
0
2.173854841e-06
7.840804495e-07
3.165751617e-08
2.607091529e-08
9.631839177e-08
1.144873907e-07
4.176818276e-08
1.480589426e-08
3.358416367e-08
7.086361166e-08
1.191504835e-08
7.270609157e-07
9.47438825e-07
1.875319598e-06
2.499402161e-06
1.585176215e-06
5.024323704e-07
2.617046189e-08
3.438434248e-08
0
7.634359444e-09
1.264612467e-07
4.754667659e-07
3.65428458e-08
2.765042036e-08
2.622323108e-08
2.570629279e-08
8.135650241e-07
0
0
0
5.92030967e-08
1.43422834e-08
1.248921168e-07
2.265841866e-07
3.075151434e-07
1.106059819e-07
3.77745035e-08
2.87806962e-07
2.380666534e-07
2.998993014e-07
1.238787478e-06
2.499665041e-08
1.783075815e-07
5.82454587e-07
2.321147744e-08
1.492229596e-08
2.609701327e-08
4.20001504e-08
1.971842805e-08
1.795334919e-08
1.800715946e-07
1.168348443e-08
1.763117573e-08
3.549581818e-08
1.286186777e-07
1.979269999e-08
1.571033084e-08
6.966933612e-08
2.606694564e-08
3.716403572e-08
1.685306458e-07
2.138605116e-08
2.01638711e-08
8.197967809e-08
8.874359483e-08
3.969023288e-08
5.361352993e-08
1.196202875e-08
1.845559768e-08
1.822078144e-08
3.355299371e-08
1.40442404e-08
1.45680721e-08
2.230241117e-08
1.855258534e-08
1.67347617e-08
2.040263882e-08
4.91229858e-09
1.388103997e-08
0
2.084158275e-08
6.764863529e-11
0
1.782945254e-07
7.067803246e-08
2.86782182e-08
8.884971201e-08
1.660183583e-08
2.16385711e-09
4.976878133e-08
0
0
1.025435907e-08
1.693106155e-08
1.094999095e-08
8.184463609e-08
1.239771171e-07
2.491192426e-08
1.06472767e-08
3.663497928e-08
5.366445804e-08
5.824435067e-09
7.436901099e-09
2.475807631e-09
4.153566573e-09
0
0
0
0
0
0
3.342255169e-07
2.163064327e-07
6.844838981e-08
6.819986814e-08
8.65239485e-09
2.160267045e-07
2.778622204e-08
5.648281766e-08
2.135526696e-07
4.735504653e-08
6.538766604e-09
2.527064231e-08
0
2.000182625e-08
2.778539647e-07
3.595072885e-08
1.223856226e-07
1.782568017e-08
4.755467598e-08
2.132216416e-08
5.588571426e-07
5.42731763e-07
5.430022328e-07
1.656329193e-07
5.678986742e-07
4.958472443e-06
9.265140099e-08
1.831465336e-06
0
0
1.006977215e-07
1.734453337e-08
0
8.289833417e-08
5.451754591e-07
1.54456481e-07
5.472481135e-07
5.50514444e-07
4.765023727e-06
1.664602151e-06
1.628936155e-06
1.553358889e-06
0
1.458814065e-07
0
0
8.732874253e-08
1.525756545e-06
3.14639718e-06
1.843639704e-06
1.354426769e-06
0
1.88997252e-06
8.775703006e-09
0
6.267309678e-08
0
0
1.154714335e-07
1.891374334e-07
0
7.269573579e-07
9.190728532e-07
2.543554701e-06
3.526283871e-07
1.492203352e-06
6.902124131e-06
1.4993161e-06
1.834815813e-06
0
0
1.903793357e-06
0
0
0
1.082631606e-06
4.797592997e-07
1.962287581e-06
1.133587726e-06
1.131822925e-06
1.078465033e-06
1.930701935e-06
1.720425187e-06
2.43322714e-08
1.389291748e-06
2.143440083e-06
1.607203095e-06
2.064387722e-06
1.807006801e-06
1.758744559e-06
1.405219745e-06
1.100962034e-06
1.089449628e-06
1.1632122e-06
2.002220963e-06
0
0
0
0
1.833340718e-08
0
0
8.682453334e-09
2.92402756e-05
0
6.516204489e-08
0
0
5.751342175e-06
2.462867172e-08
0
3.42916815e-07
0
2.114708248e-08
1.205847545e-07
1.036772834e-07
0
1.930937829e-07
3.030877767e-05
7.932109111e-07
3.161435012e-05
7.398912565e-09
3.127160786e-07
0
1.787543121e-06
9.681179561e-07
0
3.305415334e-06
1.02751319e-07
1.845268483e-06
1.714018906e-06
3.370886487e-06
3.410192701e-08
1.822107892e-08
1.812484529e-08
2.872141317e-08
3.381018034e-08
3.610645775e-06
3.175224842e-08
3.576374894e-08
1.079920232e-08
3.91442459e-08
3.597579159e-08
2.414333902e-08
2.917679195e-08
4.212096052e-08
2.77959654e-08
3.264505918e-06
6.008731757e-08
1.786803125e-06
2.891822397e-06
3.437679779e-06
1.200931789e-07
9.250062083e-08
1.792795512e-06
1.815017298e-08
2.381426077e-09
2.381407689e-08
2.420932727e-08
2.536182421e-08
1.220306325e-08
1.394746147e-08
1.027898616e-08
3.244854121e-06
3.207675984e-06
0
1.525517741e-08
5.041342063e-09
1.146866885e-08
3.188898727e-06
1.314809719e-07
0
0
0
4.384030397e-09
2.041715611e-08
1.504182303e-08
0
2.574439727e-08
8.356463334e-09
1.018490361e-07
0
9.74489709e-09
1.874742664e-08
0
0
7.880599373e-07
1.436802115e-08
0
4.525890977e-08
9.688241133e-07
7.355760727e-07
0
1.502835832e-06
8.162685068e-09
5.469447659e-07
4.260276681e-07
3.23147889e-07
0
6.481895957e-07
2.587928778e-07
0
6.54866914e-07
3.841499567e-07
2.215574869e-05
2.538680145e-06
0
8.572475029e-08
8.388226116e-08
8.695887789e-08
5.70305314e-08
2.436683689e-07
1.041746653e-07
8.892504499e-08
9.115531128e-08
7.126363791e-08
1.650302614e-08
1.63090033e-08
3.87710947e-08
1.570758283e-06
4.292127721e-08
3.245059396e-06
1.516754144e-06
1.197165406e-06
0
9.393149973e-08
8.598012733e-08
4.25561728e-08
2.89222976e-08
2.990914533e-08
1.329010117e-08
9.564099858e-09
1.736463356e-08
4.258364972e-08
1.476611153e-06
2.681990248e-07
1.149016287e-06
3.027676523e-06
3.535183265e-08
6.272824267e-08
8.451026354e-09
1.405764491e-07
1.569025172e-08
4.260234052e-08
1.807921562e-07
4.341051626e-09
2.549462743e-08
0
4.077834553e-08
0
6.03659333e-08
1.028446365e-06
2.037428697e-06
2.645902207e-07
7.562093342e-08
9.304058703e-08
4.440782089e-09
4.5766969e-08
1.026336165e-07
9.39479455e-09
3.972810373e-08
1.40201904e-07
3.853404188e-07
6.154987811e-05
3.014210341e-06
3.1920162e-06
8.928646754e-06
1.977305717e-07
1.100518864e-07
5.733031675e-08
1.968869798e-07
1.811304671e-07
0
2.861093285e-08
4.00850878e-07
0
1.041477356e-08
3.657600565e-07
3.795571948e-07
2.180909818e-08
2.808034307e-06
8.690226429e-06
8.529664351e-06
1.526350943e-07
1.935227897e-07
1.665081028e-07
1.905717941e-07
2.039598911e-07
1.594217249e-07
2.444905641e-08
4.484219451e-07
4.399854465e-07
3.745821147e-07
3.783087881e-07
2.62794387e-08
0
6.095641071e-08
0
3.317317104e-08
9.042895073e-08
2.00344989e-07
1.087618235e-07
1.673122979e-05
1.731407798e-05
9.604342561e-08
1.716956766e-05
1.376832434e-07
0
1.399227621e-07
1.488790479e-08
1.42319473e-07
0
4.996508399e-07
2.075140825e-05
1.004819017e-07
1.455879605e-05
1.625545738e-05
2.973203537e-08
3.534565665e-07
8.020286976e-07
0
0
7.122709621e-07
5.705217456e-07
0
4.388071129e-09
7.81568544e-07
2.791574303e-07
1.282044291e-08
5.208139307e-07
0.0002884167053
0
0.0002861332948
0
1.478490641e-07
0.0002603752369
0.0001806171266
7.42126256e-05
0.0002060606609
0.0003441931826
0.0002564419606
0.0001259843354
0.0001142479418
0.000339839649
9.945862204e-05
0.000197176697
0.000231799356
0.0001337874221
8.711611523e-05
0.0005486767395
0.0001981882837
0.000240245129
6.099533436e-05
0.4016264053
0.3377098707
0.8634232469
0.7899818639
1.060776991
0.3048119252
0.2425483925
0.2889813413
0.3189887007
0.3013712346
0.3469268553
0.2911338444
0.2283620302
0
0.239853976
0.2694357004
0.2290888297
0.2829122309
0.954092459
2.220506663
0.8415767626
4.675970042
2.861216402
4.271270798
0.2863490467
3.286340202
1.787263496
0.5517851967
3.171781515
1.864129412
5.183864569
2.489593069
0.5234112008
1.6874748
0
2.293157567e-05
6.926716844e-06
0
1.088577921e-07
1.019157066e-06
2.46527783e-07
1.267399781e-06
0
0
0.0003282214606
7.877865837e-05
0.0001451908916
0.0001004416308
6.323735399e-05
0.000358798196
0.0001576020766
0.000280952151
0.0003687386504
0
8.2059291e-05
0.0001374275967
0.0002029870794
0.0003869961792
0.0002571812425
0.0002187667928
0.0001908918526
0.0006348762503
0.3068061988
0.2662094292
0.2010936909
0.294883324
0.5187057544
0.471077482
0.1599577385
0.4962863238
0.4606471084
0.1876855983
0.3989425889
0.3778923943
0.7986662676
1.454948015
2.781697429
3.963792342
3.826593987
1.04217817
2.419871265
3.590441946
4.407169321
3.650644538
0
3.470024308
1.472507522
9.503216668e-05
9.185940046e-05
0
0.0002691575984
0.0001449173482
0.0002570023753
0.0001422525897
0.0002115662435
2.499744486e-05
2.423682477e-05
6.723460156e-05
0.0002965956356
0.0003267091123
0.0003558309191
0.0005755896452
0.0001421069774
0.0002378087035
0.0001443058197
0
0.0003710750614
2.563727294e-05
0.0003860172443
6.381302418e-05
0.0004984323855
6.721995433e-05
0.0004484036319
0.4125717924
0.3873929227
0.778962489
0.4114607998
0.4112079072
0
0.2043338386
0.2198440338
0.115695561
0.2274158767
1.5504623
4.564071091
4.494119172
3.728812328
2.91725927
0.09036035044
1.324566124
0.6197051839
2.91567261
1.162473434
0.117899138
0.6737220103
2.755135204
1.019651369
0
0
0
0
0
0
3.971387053
0
0.1601000557
0
0.8993293225
4.093816444e-07
4.308407504e-07
5.337115487e-07
8.766205789e-07
0.0001028381754
5.593324768e-07
3.489685548e-08
0.0001189062348
5.284094478e-05
1.111935489e-06
5.165730277e-05
0
5.697788394e-07
2.552271167e-05
0
8.510079364e-07
4.540260565e-07
0
0.0002900654162
0.0001769405982
0.0001738023795
0.0001534641928
0.0003736040879
0.0002145594538
1.094608282e-06
0.0001150359626
0.0001485222834
0.0001944596865
0.0002815482074
0.0003322856701
0.0003153432976
9.351156796e-05
0.0001218457265
0.0002588127586
0.0002667837603
0.00013907452
0.0003026735073
0.0001913488922
0.3745904306
0.3164916584
0.2221310471
0.2204271271
0.342775098
0.3793904062
0.3115910475
0.2267834406
0.161072257
0.2027279058
1.18195982
0.4143003869
0.4114180638
0.4513988044
0.439829977
0.2666507815
0.3358713374
0.3116915386
0.4025616924
0.2724548156
0.3079920489
2.341178613
4.380441249
3.225841957
1.989665309
3.125935326
1.059210272
1.477254666
4.145165159
4.562636456
3.143178256
0.2739306871
0.3441903084
4.230642665
3.818006555
4.122944847
3.835329874
3.723517034
4.269483768
7.384996395e-07
0
0
8.999336893e-05
2.370818811e-05
6.499120516e-07
0
0.0001411079668
5.590222282e-05
0.0001697042095
6.3631104e-05
4.223527916e-05
0
0.0001982129511
0.0002140869748
0.0002864385898
0.0004392325617
0.0001851285433
0.0004788465166
8.378611226e-05
0.0002108003315
0.0002929969665
0.000158089329
0.0002923147197
0.0003198593836
0.4114629581
0.1648700337
0.1806830101
0.2319414131
0.1712851029
0.1847274371
0.1495295754
0.3266941821
0.2463315915
0.221689883
0.4027154727
3.93752407
2.830965558
3.485018722
3.789050678
1.029438288
4.014832286
1.898529838
2.627741676
0.1636821471
1.927019654
0.1692143276
0.3734580033
0
2.409910657
1.825365425e-07
1.782918622e-07
5.205572852e-07
5.291463678e-07
0.0001352940214
1.084624347e-06
1.05274139e-06
0.0001449072254
1.405805415e-06
0.0001154432
0.0001608683122
3.810295536e-06
4.742311321e-06
7.377534483e-07
0
0.0004130279434
9.565883299e-05
9.498961356e-05
0.0004068796894
0.0002568566167
0.0002641250497
0.0003256782133
5.385178472e-06
0.000302031471
0.0002528077563
0.3796165999
0.3321397683
0.1431518292
0.3579688462
0.3535444998
0.1389822087
0.3873000561
0.3456675797
0.3670043988
0.2076224154
0.2552018959
0.4144210974
2.146079005
4.047938342
2.932440214
1.580908933
2.687435657
2.619858047
0.6524648254
0.6350057475
2.022440948
4.477752259
2.927503995
3.778468954
0.560460735
4.04394631
0
0
0.0002108518171
8.72452011e-07
1.927625982e-05
6.703619149e-07
5.421755617e-07
1.392085913e-07
3.040367687e-07
1.537256015e-07
5.600815716e-08
1.423073008e-07
9.704058148e-05
0
5.083645113e-07
0
0.0002653916056
0.0001627540354
0.0001448369573
0.0003217404277
0
0.0002527256647
0.0001752963038
0.0003722405481
0.0001066249639
0.0001086519061
0.0001918582694
0.0001806143739
0.0003266167951
0.0003061437897
7.663261073e-05
0.0005668082718
0.0005804115473
0
0.0002481296987
0
0.319918257
0.6009948608
0.298390661
0.5794673863
0.5909459069
0.2418525463
0.2545630028
0.3111791788
1.452395941
0.3150245803
0.6802257424
0.647237656
0.5317862368
0.5294146232
0.1789436301
0.4892635308
0.4973778537
0.4980156918
0.1989136053
1.399796311
4.54260217
0.6501377739
0.3405818905
0
4.284459708
3.937618823
0.638542943
4.065606605
1.769887766
1.433907464
4.187078763
0.7574764287
3.70682707
2.65183557
0.5562759185
0.0002602379433
0.000251408736
0
0
0
0
0
0.0001750231377
0
0
3.296109744e-05
3.115452484e-05
3.055735753e-05
0.0002101116687
0
0.0003319784718
0.0003628940113
0.0004811553663
0.0001720933556
0.0001318220833
0.0002862007151
0.0001377562812
7.147115186e-05
0.0009115695356
9.529978037e-05
0.0001916697676
0.0004519338857
0.0001645547678
0.7052106737
0.2514406038
0.6916700482
0.6821692148
0.2452301976
0.2386804924
0.2467679926
0.7304010317
0.3661543635
0.2975525643
0
3.484125125
3.833288886
0
0.3133448425
3.710020442
0.369206035
1.566422805
0
2.367414134
0.5739580617
4.786048658
5.575288214
0
0
3.554345771e-07
0
1.243424089e-07
5.963872211e-07
1.920228146e-07
0
2.788649146e-07
5.271124651e-05
4.855607091e-05
6.692954599e-06
5.412981452e-05
5.186247157e-05
0
0.0001174820298
0.0002939978535
0.0002428559299
0.000191990147
0.0001901780276
0.0001101168829
0.0002977239134
8.442743751e-05
7.512613433e-05
0.0001332783348
0.0002738655127
0.0001614020979
0.0001002461987
0.4821411786
0.4632023326
0.3699117644
0.3818388215
0.7901777937
0.8024485905
0.3906187942
0.9122554794
0.8424546987
0.15271743
0.2033115459
0.3908092389
0
0.2126066684
0.1704471513
2.33936533
0.5994176358
2.475711653
0.8883358465
3.239134862
3.582190369
1.322437776
0.8498742054
3.285259628
0.239880054
2.98966643
0
0.1787560956
0
0
0
0
0
3.771165011
0
0
0
3.398619321
0
0.0002876910656
0.0002906670662
1.09516675e-06
0.0003763724112
0.000288692016
7.572084961e-07
0.0002658672603
0.0002662828158
0.0001481336399
1.639547364e-06
0.0002658835874
0.0001450850392
1.099900877e-06
9.330952264e-07
0.0001583652986
1.69868197e-06
1.509446363e-06
0
1.720319634e-08
1.989655215e-07
8.791564327e-07
0.0003979857908
0.0001318469827
0.0001661823893
6.905300814e-05
8.63619994e-05
0.0004007142834
0.0006005856856
0.0003213581405
0.0004660666276
0.000175815158
0.0003246629404
0.0004528837238
0.0002371469309
0
0.0002554421361
0.0001614091539
0.2086574253
0.2146269596
0.3976470976
0.4338648656
0.2022837135
0.2185944949
1.581489396
0.2305011056
0.7758904382
0.6761673973
0.4706048892
0.4869340934
1.497969296
0.2138697976
0.7425398436
0.2604310249
0.782534972
0.7348390975
0
3.753331197
1.551453642
2.68746958
0.7991805497
1.897773334
3.757262642
0.3783397745
0.5649004304
4.11493903
3.974760558
4.516526294
2.142885326
1.237051848
3.544540275
0.2428004512
5.392297752
3.674944939
1.533000438
6.158476445e-07
8.943867805e-07
6.458383266e-07
9.899082055e-05
1.682498116e-05
1.901025727e-06
0
3.373716388e-07
0
7.941808797e-07
2.02252946e-07
0.0001082203627
0.000438892323
9.982443891e-05
0.0001101920335
0.0001472687917
0.000634197041
0.0003313862694
9.539758862e-06
0.0003773807153
0.0001875382212
0.0003164686252
0.0001427687738
0.0003767669836
0.4594870493
0.3520359455
0.2552648479
0.4764443763
0.4320065111
0.4308204722
0.5679832634
0.2710259072
0.3948904687
0.580914505
0.682009669
0.3892564431
0.3733748858
0.4340946282
0.382963759
0.5407386113
4.067577302
4.417943463
2.857876901
2.655549048
1.813476475
2.239978171
0.386872434
5.079302754
3.858151704
2.446140629
0.4200313102
0
6.107688376e-07
6.484230115e-07
4.260859537e-07
2.732899459e-07
0
0
5.573562278e-05
0
0
4.155025026e-07
0
8.415392667e-07
1.430908248e-07
7.986333155e-05
0.0002503345543
0.0001538580573
0.0001805897916
0.0001847309669
0.0003044073031
0.0001301658322
9.774057163e-05
0.0003039077533
7.984092165e-05
0.0002466838591
0.0002470393417
0
0.1069797736
0.715435797
0.09709316384
0.3726629893
0.3342492837
0.1910243533
0.3556674345
0.1187129434
0.3918911334
0.1561905844
0.4397523156
0.3816085644
0.1417617845
2.103571336
0.6400390453
4.880073783
1.866971908
2.637722567
1.185783623
0.9671044832
0.7311325635
4.298541772
2.978083663
1.81608374
2.307874711
0
0
0
4.208034111
0
6.20602015
0
0
0
0
0
0
0
0
0
0
0
0
0
0
0
0
0
0
0
0
0
0
0
0
0
0
0
0
0
0
0
0
0
0
0
0
0
0
0
0
0
0
0
0
0
0
0
0
0
0
0
0
0
0
0
0
0
0
0
0
0
0
0
0
0
0
0
0
0
0
0
0
0
0
0
0
0
0
0
0
0
0
0
0
0
0
0
0
0
0
0
0
0
0
0
0
0
0
0
0
0
0
0
0
0
0
0
0
0
0
0
0
0
0
0
0
0
0
0
0
0
0
0
0
0
0
0
0
0
0
0
0
0
0
0
0
0
0
0
0
0
0
0
0
0
0
0
0
0
0
0
0
0
0
0
0
0
0
0
0
0
0
0
0
0
0
0
0
0
0
0
0
0
0
0
0
0
0
0
0
0
0
0
0
0
0
0
0
0
0
0
0
0
0
0
0
0
0
0
0
0
0
0
0
0
0
0
0
0
0
0
0
0
0
0
0
0
0
0
0
0
0
0
0
0
0
0
0
0
0
0
0
0
0
0
0
0
0
0
0
0
0
0
0
0
0
0
0
0
0
0
0
0
0
0
0
0
0
0
0
0
0
0
0
0
0
0
0
0
0
0
0
0
0
0
0
0
0
0
0
0
0
0
0
0
0
0
0
0
0
0
0
0
0
0
0
0
0
0
0
0
0
0
0
0
0
0
0
0
0
0
0
0
0
0
0
0
0
0
0
0
0
0
0
0
0
0
0
0
0
0
0
0
0
0
0
0
0
0
0
0
0
0
0
0
0
0
0
0
0
0
0
0
0
0
0
0
0
0
0
0
0
0
0
0
0
0
0
0
0
0
0
0
0
0
0
0
0
0
0
0
0
0
0
0
0
0
0
0
0
0
0
0
0
0
0
0
0
0
0
0
0
0
0
0
0
0
0
0
0
0
0
0
0
0
0
0
0
0
0
0
0
0
0
0
0
0
0
0
0
0
0
0
0
0
0
0
0
0
0
0
0
0
0
0
0
0
0
0
0
0
0
0
0
0
0
0
0
0
0
0
0
0
0
0
0
0
0
0
0
0
0
0
0
0
0
0
0
0
0
0
0
0
0
0
0
0
0
0
0
0
0
0
)


// ************************************************************************* //
