/*--------------------------------*- C++ -*----------------------------------*\
  =========                 |
  \\      /  F ield         | OpenFOAM: The Open Source CFD Toolbox
   \\    /   O peration     | Website:  https://openfoam.org
    \\  /    A nd           | Version:  7
     \\/     M anipulation  |
\*---------------------------------------------------------------------------*/
FoamFile
{
    version     2.0;
    format      ascii;
    class       scalarField;
    location    "2/lagrangian/coalCloud1";
    object      Qin;
}
// * * * * * * * * * * * * * * * * * * * * * * * * * * * * * * * * * * * * * //


2000
(
298.0000063
297.9999916
298.0000573
298.0000438
297.9999948
298.0000968
298.0001752
298.0000768
297.999996
298.0003705
298.0003278
298.0018445
298.0001952
298.0002024
298.0000234
298.0021084
298.0010988
298.0027555
298.0009038
298.0000593
298.0000405
298.0007865
298.0003141
298.0011558
298.0002522
298.0000207
297.9999992
297.9999938
297.9999957
297.9999938
298.0000383
297.9999933
298.0000389
298.0000956
298.0001653
298.0000554
297.9999933
298.0015097
298.0018438
298.0002979
298.0000064
298.0000207
298.0020405
298.0011856
297.999996
298.0000258
298.0000412
297.9999958
297.999996
298.0000538
298.000059
298.0000165
298.0000268
298.0001696
298.0000853
297.9999934
298.0005928
298.0002066
298.0000387
298.0000104
298.0046885
298.0039835
298.0002177
298.0046647
298.0040936
298.0017489
298.0000543
298.0056469
298.0001623
298.0234228
298.001618
298.0005058
298.0130753
298.0131156
298.0000677
298.0117639
298.0087979
298.0072281
298.0078922
298.0001186
298.0535649
298.000101
298.0049153
298.0024488
298.0014346
298.0020106
298.0059727
298.0012121
298.000734
298.0004453
298.0004824
298.0000089
297.9999973
297.9999978
297.9999948
297.999988
297.9999946
297.999987
298.0033486
298.0061689
298.0022609
298.0031032
298.0041898
298.0003582
298.0002151
298.0000026
297.9999969
297.9999942
297.9999883
298.011463
298.0078034
298.0053161
298.0075053
298.0088071
298.0021853
298.0030176
298.0046471
298.0026727
298.000023
298.0000246
298.0000113
297.999997
298.0000071
297.9999915
298.0000004
298.3528685
298.0180257
298.0665846
298.3470492
298.0199458
298.0038229
298.0021264
298.0001846
298.0001061
298.0036356
298.000013
298.002773
297.9999997
297.9999955
297.9999916
297.999999
297.9999818
297.9999989
297.9999999
298.0000004
298.0000122
297.9999973
297.9999985
297.9999962
297.9999934
297.9999936
297.9999935
297.9999853
297.9999829
298.000037
298.0000005
298.0000015
298.0000168
297.9999931
298.0000021
298.0000147
297.999997
297.9999915
297.9999898
297.9999883
297.9999855
298.0000234
298.0000335
298.0000228
298.0078147
298.0000585
297.9999961
298.0000444
298.0000739
298.0000421
298.0000179
298.0000755
297.9999927
297.9999902
298.0057533
298.0231491
298.0069219
298.0001422
298.0066733
298.0237263
298.0277941
298.0196028
298.0213037
298.000087
298.0192925
298.0044068
298.0019132
298.0086286
298.0000128
297.999993
297.9999979
298.0000095
298.0004885
298.0010134
298.0000034
298.0007521
298.0003307
298.0002192
298.0000474
297.9999957
298.0000344
298.0002597
298.0002776
298.000201
298.0001284
298.0010845
298.001489
298.000138
298.000715
298.0045555
298.0000001
298.0000048
298.0002821
298.0009069
297.9999917
298.0000171
298.0008287
298.0000065
298.0000371
298.0002078
298.000033
298.0000286
298.0001931
298.0002137
298.0009849
298.0001376
298.0005524
298.0025776
298.0016232
297.9999962
298.0000033
298.0000008
297.9999999
298.0001927
298.0000116
298.0000208
298.0000042
298.0000231
298.0000013
298.0000337
298.0001307
297.9999994
298.0000758
298.0001142
298.0001361
298.0000508
298.0001786
298.0001689
298.0000552
298.0000628
298.0001032
298.000061
298.004161
298.0001082
298.0024049
298.0147756
298.0000627
298.0076353
298.007915
298.0002509
298.0022019
298.0001768
298.0000016
298.0001077
298.0317818
298.000154
298.0098851
298.0013571
298.0008098
298.0010182
298.0022599
298.0016931
298.0004943
298.002019
298.0015429
298.0004097
298.0008458
298.000891
298.0002566
298.0003288
298.0004673
298.0000759
298.0008964
298.0001665
298.0000335
298.0005516
298.0006384
298.0010485
298.0002915
298.0005002
298.0022573
298.0007069
298.0002219
298.0001615
298.0000954
298.0002327
298.000118
298.0003493
298.0001897
298.0000926
298.0003226
298.0001654
298.0000709
298.0003405
298.0000088
298.0000087
298.0000957
298.0000855
298.004917
298.0001032
298.0067543
298.000306
298.0175476
298.021597
298.0001597
298.0001094
298.0079275
298.0385533
298.0002584
298.0078415
298.0002228
298.0582198
298.0141353
298.0080428
298.0001192
298.0208681
297.9999965
297.9999869
297.9999784
297.9999975
298.0000003
297.9999851
298.0001762
298.0000052
298.0000636
298.0032644
298.0005185
298.000473
298.0014303
298.0009352
298.0007676
297.9999897
297.9999956
297.9999771
297.9999677
297.9999942
297.9999911
297.9999866
298.0000298
298.0003151
298.0003974
298.0008445
298.0010691
298.0011817
298.0013077
298.0013781
298.0000128
297.9999824
297.9999945
297.9999842
297.9999734
298.0000813
298.0000362
298.0000317
297.9999952
298.0002691
297.9999955
298.0001013
298.0003228
298.0002107
298.0002029
298.0000188
297.9999979
297.9999942
298.0104064
298.0000926
298.0001144
298.0103873
298.0094248
298.0006325
298.0174926
298.0005154
298.0001416
298.0273397
298.0001099
298.0000365
298.0002985
298.0000099
298.0000037
297.9999851
297.9999935
298.0003106
298.0000012
297.9999871
297.9999892
298.0000136
297.9999991
298.0002394
298.0000072
297.9999885
297.9999733
298.000036
297.9999931
298.0003715
298.0000421
298.0000641
298.0000771
298.0000149
298.0001842
298.0006198
298.0004693
297.9999985
298.0002289
298.0005531
298.0000023
298.0000009
298.0000042
298.0002446
297.9999993
297.9999894
297.9999882
298.0000005
297.9999975
297.9999917
298.0000342
298.0000099
298.0000808
298.0000357
298.000674
297.9999952
297.9999941
297.9999853
297.9999915
298.0000789
297.9999943
298.0000221
298.0000142
298.0000054
297.9999992
298.0000387
297.9999982
298.0000069
298.0000166
297.9999985
298.0000146
298.0000875
298.000032
298.0004469
298.0001894
298.0003124
298.0020475
298.0310443
298.0000842
298.000029
298.0024134
298.0001712
298.0086368
298.0002297
298.0001333
298.0049157
298.0002848
298.0002793
298.000254
298.0008043
298.0005046
298.0202324
298.0000909
297.9999834
298.0000571
297.9999847
298.0000489
298.0004903
298.0002973
298.0002682
298.0009527
298.0009315
298.0022367
298.0002804
298.0029067
298.0016484
298.0005405
298.0000958
298.0001177
298.0001245
297.9999773
298.0003329
298.000403
298.0005395
298.0015467
298.0025373
298.0018532
298.0013123
298.0016978
298.001353
297.9999761
298.0005046
298.0009484
298.0007031
298.0013309
298.1586136
298.0033377
298.0015067
298.0009429
298.0013487
298.0051707
298.0009542
298.001969
298.0022015
298.0017141
298.0006314
298.1858909
298.0199543
298.0031946
298.0073052
298.0821803
298.015621
298.1080109
298.3086926
298.0037091
298.0045712
298.0040396
298.001666
298.0013375
298.0025965
298.0024274
298.0014876
298.0025177
298.0014175
298.0037034
298.0005663
298.0010711
298.0035891
298.0020358
298.0014709
298.0005747
298.0012753
298.0032362
298.0012658
298.0021803
298.0009796
298.0022556
298.0056828
298.0006553
298.0008674
298.0024219
298.003726
298.0003802
298.0002722
298.0020718
298.0001531
298.0002065
298.0002821
298.0003249
298.0036283
298.0199066
298.0012713
298.0064925
298.0053718
298.0045764
298.3085112
298.0000307
298.0006619
298.000432
298.0001096
298.0001233
298.0048417
298.0015004
298.0026198
298.0142507
298.0200978
298.106248
298.0844334
298.0013363
298.0228705
298.0304039
298.0009152
298.0016491
298.0021358
298.0026446
298.0008566
298.0010383
298.0018158
298.0059226
297.9999917
297.9999957
298.000291
298.0003062
298.0008376
298.0016844
297.9999859
298.0000052
297.9999985
298.0003427
298.0006774
297.999999
298.0000299
298.0003639
298.0000351
298.0021732
298.0003696
298.0006041
298.0019582
298.0019889
298.0000334
298.0002924
298.0009703
297.9999934
298.0000056
298.00014
298.0008954
298.0006251
297.9999998
298.0000004
298.0002394
298.0015119
298.00153
298.0002258
298.0000618
298.0000171
298.000194
298.0013462
298.0000374
298.0005937
298.0000987
298.0002335
298.0001046
298.0002659
298.000214
298.0005933
298.0000561
298.0000238
298.0000349
298.0000117
298.0000468
298.0004629
298.0017367
298.0004336
298.0252544
298.0003818
298.0050013
298.0129826
298.0455769
298.0303465
298.0001507
298.0724389
298.0002432
298.0143438
298.0125134
298.0145455
298.0002929
298.0184301
298.0060511
298.0003252
298.0275423
298.0108511
298.2433431
298.2186044
298.0004603
298.0001047
298.0000327
298.0000575
298.000124
298.0000142
298.0012262
298.0000234
298.0000153
297.9999829
298.0003508
298.0001866
297.9999978
298.0009779
298.0002808
298.0015467
298.0015144
298.0014685
298.0022625
298.0003916
298.0000237
297.9999948
298.0000011
298.0004896
298.0000051
298.0006221
297.9999618
297.9999862
298.0010023
298.0004459
298.0015193
298.0016939
298.0008975
297.999989
297.9999896
298.0001505
297.9999993
297.9999774
298.0000173
298.0003406
297.9999837
297.9999782
298.0001249
298.0003625
298.0001
298.0400922
298.062966
298.0102337
298.0002503
298.0020702
298.0000313
298.0007279
298.0019775
298.0002122
298.0004847
298.0006122
298.0000939
301.5278297
298.0038444
298.0014579
298.0051481
298.0004412
298.0013295
298.0008553
298.0001799
298.0000931
298.0001759
297.9999952
298.0001667
298.0002042
298.0000253
298.0002132
298.0003068
298.0000277
298.0026095
298.0057552
298.0053237
298.0003985
298.0000787
298.001344
298.0017362
298.0039947
298.0025717
298.0000147
298.0037868
298.002157
298.0001694
298.0013515
298.0000524
298.0013895
298.0000371
298.0005025
298.0000745
297.9999959
298.0009076
298.0012015
298.0058098
298.008625
298.0017754
298.0082244
298.0016165
298.0000967
298.0010944
298.0003049
298.0000383
298.000699
298.0071156
298.3320237
298.0014612
298.0112684
298.0093643
298.0000677
298.018691
298.0313868
298.0736703
298.0010028
298.0435223
298.0253255
298.0733033
298.0072048
298.0418086
298.0109732
298.0457986
298.0315357
298.2326765
298.1335956
298.2479742
298.0086904
298.025565
308.1285378
303.0734359
300.2444252
305.8290188
309.1538904
309.4431371
303.7321606
302.3217501
312.6547296
302.8268221
304.9712885
308.5553661
302.4170435
301.8983709
306.7526298
304.3502579
308.6006162
300.8629644
382.0542861
345.8007038
352.6729818
334.0744245
417.4058379
336.4812646
327.1629514
400.7142375
346.704488
337.2254996
359.8722741
355.8883943
334.47412
316.2219345
347.7795121
328.4234045
339.4603732
357.6679881
433.8358304
781.0486822
451.7357946
1028.966855
863.4266123
988.0717212
407.2994638
901.1931699
777.3272161
589.4410427
839.681821
789.2422529
1061.026837
806.0122183
567.5479564
777.2855969
298.0437134
298.0380342
298.026943
298.0005091
298.0799778
298.0542526
298.0137588
298.0552386
298.0568309
298.0230361
298.2199966
302.8387356
303.4806006
300.8108676
302.3886441
312.9203105
303.4381726
305.9941378
313.422557
298.0743413
300.2115577
303.6722112
305.9602851
311.8627404
306.4305417
305.961557
305.1196123
309.2675949
362.1356669
338.2985872
354.3985625
339.837534
376.5188321
346.834712
350.0612883
357.5500242
345.0242249
363.265562
384.7583295
381.862452
350.0245471
734.1298716
835.6857968
997.1716288
923.4985194
678.5665391
830.2377004
972.140773
975.7758002
913.6900521
986.9367705
887.6047595
706.3666236
298.0910131
298.0860776
298.0456249
298.4063328
298.0891111
298.1684437
298.0835923
298.1084796
298.0388331
298.0612355
298.0477496
304.3689468
298.3222683
306.932048
315.4869975
298.3557082
302.2535665
298.202924
306.0069795
304.4649767
298.1061112
309.396581
298.1345515
314.7054942
298.0849726
309.5324442
335.0372224
360.5524161
347.7771173
344.5239886
353.1257793
313.7350945
354.2970357
323.2620353
338.9293106
335.7244652
721.7207492
959.8933104
944.9307718
913.9136489
870.4662253
345.8747711
733.3141566
636.937696
885.8117132
721.7166188
343.6861176
632.3946339
870.9706274
702.8065451
981.6376369
819.8299274
940.7360277
927.4684315
1083.77492
1015.247247
998.2255239
964.5420989
986.1675357
807.7029131
379.944822
298.0143824
298.0224372
298.0182085
298.0301431
301.809884
298.0247341
298.0002912
301.9169557
298.0420712
298.0415166
298.0289812
298.0103475
298.018927
298.0528082
298.0002118
298.0554784
298.0564069
298.0074439
308.8547437
305.6330018
303.8949762
304.626287
313.2687528
305.4509521
298.0457347
302.0808766
302.3215077
304.0628617
307.2190861
309.8178007
308.603781
300.7996325
303.5147345
307.433931
307.5029909
304.4399139
311.9505645
306.5684524
350.8024994
334.1952394
350.8641867
340.8456968
340.916714
362.5841693
352.9780359
364.2621448
325.0686482
337.2303943
715.5268545
328.4503905
344.9286956
353.080911
415.9476574
345.5274025
448.5504874
353.1813345
368.2148804
353.9182497
332.5175007
795.1125208
1025.3105
879.3444775
904.8501696
898.1856083
720.4014549
783.5215996
950.9544059
940.6937353
926.6101105
508.6031065
491.1494572
946.4048952
897.0990387
960.125465
929.007139
896.4786222
1031.178675
298.0760749
298.0443024
298.0201278
300.2312778
298.0738874
298.0142771
298.0230908
301.5686701
298.1065105
298.150634
298.0447509
298.0799182
298.1142474
307.0930261
305.9719122
307.6146034
316.3845418
306.0150088
311.9907883
300.3526859
305.3260854
302.0849739
302.2608433
308.6757222
303.0666128
355.242357
362.0822873
347.1618097
337.3621988
329.500226
338.8775843
334.4899345
540.8280915
343.5731662
324.0989439
538.9546876
926.7323245
843.4729076
918.5272383
923.0141851
708.2336511
946.7944218
786.8775741
835.4927647
354.2697072
779.9981351
360.763307
553.2222305
950.349772
809.3506266
298.0103145
298.0070722
298.0104078
298.0280497
304.0649271
298.033133
298.0455104
303.1798106
298.0513192
302.3940323
298.1688346
298.0352569
298.0678077
298.0507651
298.0802903
314.2607438
301.1526334
301.0652705
312.8092316
306.6266099
307.1986084
311.8017604
298.084648
309.3707563
307.5031721
357.1247375
329.9293769
342.8289795
334.7600273
351.7656639
342.9629078
342.9840457
335.7144136
330.8616477
362.5314206
353.318937
360.595441
1000.215399
930.4214694
867.0561484
744.4826701
851.116866
835.0391615
638.6392432
537.6546891
784.7807874
1022.054338
880.6822382
942.9069051
587.4693067
952.1641562
1029.65647
892.0010272
307.1013463
298.0411026
298.0688593
298.0235826
298.025225
298.0236058
298.0251007
298.0059928
298.0365502
298.0109445
301.0393632
298.0463048
298.0360757
298.0280334
298.5709779
302.9275937
304.2150669
309.6506048
304.7306799
308.7494693
304.2675399
315.34559
302.7929555
301.3094572
306.5236257
305.8804416
307.8984442
309.7111386
300.5046984
308.8571278
309.5436172
298.0407912
307.8668179
308.2828977
336.5311325
353.6179448
339.3999678
340.7132914
359.4550522
386.0920268
352.2035425
346.9538256
405.7822598
336.5659073
355.7710914
342.791475
369.9514375
368.6820258
339.1677539
376.660977
372.5001446
347.3601926
358.8715211
730.9401704
961.2314973
608.7406013
379.0522416
994.5014841
953.965019
915.6203069
402.5258853
959.0482284
779.8447357
735.117257
986.0933833
366.3101858
912.7579489
829.5967078
414.1573078
298.1336038
298.4221872
298.0309794
298.0180338
298.1094444
298.0307273
298.0050945
298.1852545
298.2013729
298.2226917
298.0266276
298.0653687
298.0225958
298.2368487
316.8519377
310.9925048
303.4531242
306.9048125
304.8683185
304.5062301
304.7862043
305.3608004
302.4458237
309.9729943
301.794928
306.5693297
314.5895239
305.1262594
397.371799
358.3976341
348.6714779
353.9562513
340.952499
337.2752848
344.0809325
347.4543544
332.3714935
399.1466765
970.1595148
860.8483252
887.6771694
917.7887075
440.9446292
991.8138508
462.4903988
747.068438
964.0789337
792.5741418
562.0739368
988.1523397
1047.101573
298.0045404
298.0664432
298.0299297
298.0430913
298.0116684
298.0382929
298.009944
298.0060039
298.0103306
298.0418005
298.0638206
298.03903
298.1281482
298.0607103
298.122225
302.6094811
309.0689682
306.3463906
305.1584008
306.5408936
302.9012597
311.1893416
300.8621235
303.3054714
303.191259
306.6944423
305.7346537
302.493521
344.7932443
393.6071455
343.9583231
343.798982
346.4333539
352.1456256
349.0920398
422.565823
395.2827632
342.6523659
332.7306319
554.0032425
308.2534483
330.9247771
351.2727627
809.132799
406.5550545
939.5333695
711.265974
836.5828479
887.2691887
752.1583206
682.4117897
923.8583977
399.6646453
855.4326414
921.2004732
1007.79428
922.9464785
818.027967
948.8660219
1068.782481
997.9903156
991.4713281
1058.273213
864.7643041
972.9887622
1013.318162
883.3690137
298.1858017
298.1466712
298.0246885
302.139467
298.1891485
298.0206293
298.1857492
298.1591073
298.0796323
298.0530068
298.1198228
298.070428
298.0432561
298.0690088
303.9927306
298.0692297
298.1129511
298.0031642
298.0128479
298.0093002
298.0351282
303.6781721
302.1838167
302.7175757
300.1571616
300.8266766
309.8321108
313.675962
305.8695982
307.1975929
302.200458
305.6414029
316.1984203
306.5125434
298.077583
307.3140111
303.7833625
337.5270406
348.8455876
330.952747
343.7897689
327.3846052
349.6012268
707.347282
354.3677056
422.281163
344.7717375
335.2366746
345.1607196
734.9077815
346.0414246
370.8381004
336.2097894
396.5661212
361.2128641
772.1006576
1008.480903
755.3242664
890.8088848
640.5749012
763.1990011
976.1362765
532.046441
400.9002065
946.1454373
909.0470099
1043.474341
1042.268246
702.0768379
860.789057
372.5701946
1046.44926
889.8312749
734.7774425
298.0373123
298.0469332
298.0377804
302.2415393
298.0354364
298.0736035
298.0265162
298.015827
298.0530959
298.0424662
298.0253751
302.9208629
316.5528695
300.8142505
302.6184889
302.0609961
315.7937016
310.068733
298.0589662
311.3375866
304.341351
306.5879697
303.5639275
313.0945954
336.490276
403.0105787
359.3769267
342.8819969
341.4456058
340.3544038
540.5549737
352.7377307
356.6782235
551.9012548
345.221505
341.7548052
329.4437359
371.5886111
414.9854461
422.3120189
945.9353025
1025.694974
828.5941784
815.2410504
751.1781648
811.6621719
614.3432222
1037.168062
919.1412622
815.3427198
344.0552845
949.1685196
298.0236731
298.0386425
298.0142027
298.0184051
298.0281162
298.0125283
299.5221589
298.0097446
298.0443689
298.017473
298.2542059
298.0423014
298.0081289
301.048924
307.3284801
302.5058682
305.6724969
303.2034508
312.0406652
303.8896416
303.331491
310.6927407
301.2164512
309.3967882
308.2645748
298.075495
338.6194548
352.4507099
335.039376
387.5959327
332.4257747
484.4369772
344.010815
333.2397311
330.7824184
347.4274844
355.4924049
337.8654994
350.6042448
802.6148038
550.5150068
945.9022966
775.0573001
803.691593
737.9865641
622.2114486
567.4234617
926.0332075
874.9957395
755.5807426
817.0038817
784.7723485
994.7870968
971.7938865
934.1181928
999.5645467
1050.40838
1205.141968
1220.018549
1220.018549
1074.478858
1227.982295
1205.141968
1220.018549
1220.018549
1227.982295
1200.96297
1215.331976
1215.331976
1200.96297
1200.96297
1200.96297
1210.856703
926.1851869
1215.331976
1213.599695
1036.610844
978.6526854
1193.155849
1213.599695
1213.599695
1102.80469
1046.022316
1220.018549
1227.982295
1227.982295
1205.141968
1205.141968
1220.018549
1227.982295
1227.982295
1200.96297
1200.96297
1210.856703
1210.856703
1215.331976
1210.856703
1210.856703
1215.331976
1215.331976
1213.599695
1192.816635
1192.816635
1193.155849
1213.599695
1213.599695
1192.816635
1192.816635
1193.155849
1193.155849
1192.70777
1192.70777
1192.70777
1187.862864
1192.70777
1187.862864
1187.862864
1187.862864
1170.506654
1116.732562
1170.506654
1185.995772
1205.141968
1185.995772
1142.025567
1185.995772
1192.70777
1192.70777
1187.862864
1192.70777
1187.862864
1187.862864
1170.506654
1170.506654
1170.506654
1170.506654
1185.995772
1142.025567
1185.995772
1185.995772
1205.141968
1185.995772
1175.446285
1205.141968
1158.170244
1175.446285
1158.170244
1158.170244
1103.651722
1175.538463
1175.538463
1103.651722
1175.538463
1175.538463
1175.538463
1133.258374
1195.751056
1195.751056
1198.386797
1195.751056
1195.751056
1198.386797
1158.170244
1175.446285
1205.141968
1158.170244
1103.651722
1175.538463
1133.258374
1195.751056
1195.751056
1198.386797
1198.386797
1198.386797
1195.751056
1195.751056
1198.386797
1198.386797
1192.70777
1204.860035
1204.860035
1003.677215
1194.776102
1204.860035
1204.860035
1194.776102
1185.151741
1181.394244
1181.394244
1184.248426
1198.502868
1198.502868
1160.312634
706.3779631
1184.248426
1198.502868
1198.502868
1186.374722
935.803599
1170.578516
1190.82046
1190.82046
1186.374722
1186.374722
1190.82046
1204.860035
1204.860035
1194.776102
1194.776102
1185.151741
1185.151741
1181.394244
1184.248426
1198.502868
1181.394244
1198.502868
1198.502868
1170.578516
1190.82046
1186.374722
1170.578516
1190.82046
1185.151741
1039.594496
1179.808657
1177.704437
1050.66972
1179.808657
1198.685402
1198.685402
1198.685402
1198.685402
1156.831342
1053.396213
1068.503892
1198.685402
1185.827953
1068.898309
1187.224842
1069.835805
1170.792169
1187.224842
1187.224842
1170.792169
1170.792169
1170.792169
1185.151741
1177.704437
1179.808657
1156.831342
1198.685402
1156.831342
1198.685402
1185.827953
1185.827953
1170.792169
1187.224842
1187.224842
1187.224842
1170.792169
1198.685402
1180.832982
1165.894353
1180.832982
1180.832982
1165.894353
1182.553337
1186.587946
1186.587946
1182.553337
1185.151741
1166.93229
1107.596534
1185.151741
1166.93229
1177.704437
1180.832982
1180.832982
1165.894353
1165.894353
1180.832982
1180.832982
1165.894353
1182.553337
1182.553337
1186.587946
1186.587946
1194.776102
1166.93229
1186.587946
1166.93229
1182.553337
1166.93229
1166.93229
1177.704437
1166.93229
1186.374722
875.7582296
1211.375067
1211.375067
1213.902623
1213.902623
1213.902623
1216.119014
1211.375067
1211.375067
1213.902623
1213.902623
1213.902623
1216.119014
1231.678217
1141.803392
1221.8688
1221.8688
1210.051894
1210.051894
1231.678217
1221.8688
1221.8688
1210.051894
1214.215919
1224.263976
1243.570666
1243.570666
1058.42055
1050.323112
1224.263976
1243.570666
1243.570666
1213.902623
1213.902623
1216.119014
1211.375067
1211.375067
1213.902623
1216.119014
1216.119014
1231.678217
1231.678217
1221.8688
1221.8688
1210.051894
1231.678217
1221.8688
1210.051894
1214.215919
1214.215919
1224.263976
1243.570666
1243.570666
1243.570666
1214.215919
1214.215919
1224.263976
1224.263976
1243.570666
1243.570666
1231.678217
1241.593837
1241.593837
1229.239111
1241.593837
1229.239111
1223.41037
1223.41037
1241.077729
1016.622009
1218.248492
1214.215919
1208.168996
1218.248492
1208.168996
1229.239111
1229.239111
1241.593837
1241.593837
1229.239111
1229.239111
1223.41037
1241.077729
1241.077729
1223.41037
1223.41037
1223.41037
1218.248492
1208.168996
1218.248492
1214.215919
1208.168996
1152.632793
1229.239111
1391.243834
1360.596709
1189.61803
1152.632793
1214.215919
1143.167749
1220.490012
1220.490012
1143.167749
1220.490012
1220.490012
1220.490012
1197.920611
1062.352698
1210.357311
1210.021849
907.062726
1210.357311
1189.61803
1152.632793
1214.215919
1189.61803
1189.61803
1189.61803
1220.490012
1220.490012
1143.167749
1220.490012
1220.490012
1220.490012
1210.021849
1210.021849
1197.920611
1197.920611
1210.357311
1197.920611
1197.920611
1210.357311
1210.357311
1210.357311
1216.119014
1202.261955
1185.620855
1185.620855
1185.620855
1191.832086
1202.261955
1185.620855
1191.832086
1191.832086
1196.882889
1196.882889
1203.451769
973.437508
1214.677957
1214.677957
1196.882889
1203.451769
1214.677957
1229.927866
1229.927866
1226.270763
1226.270763
1226.270763
1211.184275
1211.184275
1229.927866
1211.184275
1211.184275
1202.261955
1185.620855
1191.832086
1202.261955
1185.620855
1191.832086
1196.882889
1203.451769
1214.677957
1196.882889
1203.451769
1214.677957
1229.927866
1226.270763
1211.184275
1229.927866
1226.270763
1226.270763
1211.184275
1179.571015
1175.924593
1179.571015
1179.571015
1175.924593
1040.581542
1185.229194
1185.229194
1175.924593
1118.514864
1185.229194
1098.068767
1185.229194
1139.409464
1185.229194
1183.620866
1139.409464
1211.184275
1183.620866
1175.611111
1179.571015
1175.924593
1179.571015
1175.924593
1185.229194
1118.514864
1185.229194
1185.229194
1185.229194
1211.184275
1139.409464
1183.620866
1175.611111
1165.644868
1165.644868
1006.565787
929.524477
1196.734459
1196.734459
992.7830335
1113.604473
1196.734459
1115.394951
1057.169088
1143.657936
1143.657936
1229.400216
1229.400216
1047.217618
1143.657936
1175.611111
1211.184275
1165.644868
1113.604473
1196.734459
1196.734459
1165.644868
1196.734459
1115.394951
1229.400216
1229.400216
1229.400216
1229.400216
1143.657936
1229.400216
1229.400216
1383.711738
1143.657936
1229.400216
1175.924593
1191.832086
)


// ************************************************************************* //
