/*--------------------------------*- C++ -*----------------------------------*\
  =========                 |
  \\      /  F ield         | OpenFOAM: The Open Source CFD Toolbox
   \\    /   O peration     | Website:  https://openfoam.org
    \\  /    A nd           | Version:  7
     \\/     M anipulation  |
\*---------------------------------------------------------------------------*/
FoamFile
{
    version     2.0;
    format      ascii;
    class       scalarField;
    location    "2/lagrangian/coalCloud1";
    object      rb0;
}
// * * * * * * * * * * * * * * * * * * * * * * * * * * * * * * * * * * * * * //


2000
(
0.003082389157
0.003082375512
0.003082369814
0.003082372864
0.003082373425
0.003082374476
0.003082372325
0.003082383039
0.003082378426
0.003082383945
0.003082379476
0.003082385169
0.003082371036
0.003082381207
0.00308237082
0.003082368652
0.003082344134
0.00308237924
0.00308238159
0.00308237336
0.003082383955
0.003082372973
0.003082374779
0.00308236059
0.003082388337
0.003082376271
0.003082375192
0.003082384281
0.003082381196
0.003082378155
0.003082377671
0.003082377184
0.003082375344
0.003082368082
0.00308237858
0.003082384872
0.003082382104
0.003082371081
0.0030823808
0.003082382032
0.003082385754
0.003082386062
0.003082377171
0.003082376821
0.003082382038
0.003082366107
0.003082368248
0.003082375479
0.003082385812
0.003082389864
0.003082384528
0.003082378713
0.003082367604
0.003082385287
0.003082381747
0.003082382015
0.003082388397
0.003082384694
0.003082373077
0.003082382765
0.003082387058
0.003082377289
0.003082373417
0.003082378084
0.003082375028
0.003082372031
0.003082381135
0.003082357995
0.003082380454
0.003082369923
0.003082380754
0.003082374749
0.003082372992
0.003082375804
0.003082381361
0.003082388029
0.003082383599
0.003082372554
0.003082368712
0.003082368103
0.003082360122
0.003082378823
0.003082378602
0.003082357482
0.003082363286
0.003082373197
0.003082350782
0.003082377079
0.003082384787
0.003082359489
0.003082378632
0.003082375604
0.003082356637
0.003082376454
0.003082380258
0.00308237283
0.00308237693
0.003082376293
0.003082375548
0.003082376564
0.003082357806
0.003082382409
0.003082376681
0.003082379207
0.00308238058
0.00308237593
0.003082376114
0.003082367615
0.00308237515
0.003082374005
0.003082364058
0.003082371747
0.003082365156
0.003082378798
0.003082373725
0.003082384279
0.003082386372
0.003082369945
0.003082375202
0.003082372997
0.003082380291
0.003082371515
0.003082381005
0.003082373916
0.003082374806
0.003082375773
0.003082374749
0.003082379267
0.003082375833
0.003082350203
0.003082367218
0.003082382709
0.003082382065
0.003082376553
0.003082379323
0.003082362865
0.003082382842
0.003082377349
0.003082392788
0.003082377287
0.003082374505
0.003082374334
0.003082381301
0.003082361306
0.003082382706
0.003082387582
0.003082372258
0.00308237399
0.003082379552
0.003082378478
0.00308237112
0.003082371424
0.003082373522
0.003082369925
0.003082365248
0.003082387281
0.003082372723
0.003082383876
0.003082377058
0.003082385642
0.003082385434
0.003082375273
0.00308237331
0.003082381132
0.00308237398
0.003082374858
0.003082365232
0.003082384173
0.003082380615
0.003082375766
0.003082375542
0.003082377978
0.003082373
0.003082378612
0.003082377628
0.003082387237
0.003082374971
0.00308237584
0.003082380418
0.003082383588
0.003082361926
0.003082380702
0.003082378664
0.003082368205
0.003082356502
0.00308236579
0.003082377545
0.003082370206
0.003082375356
0.003082368949
0.003082383436
0.003082377386
0.003082363015
0.003082380917
0.003082365143
0.003082372712
0.003082371414
0.003082387776
0.00308237514
0.003082381485
0.003082377457
0.003082375707
0.00308237632
0.003082365986
0.003082378018
0.003082380033
0.003082376319
0.003082364984
0.003082377985
0.003082379238
0.003082381194
0.003082373931
0.003082340508
0.003082369368
0.003082365179
0.003082376226
0.003082378661
0.003082379923
0.003082384815
0.003082368197
0.003082380345
0.003082374824
0.003082392342
0.003082391199
0.003082376718
0.003082380709
0.003082388659
0.003082384346
0.003082374042
0.003082386477
0.003082371099
0.003082384005
0.003082377365
0.00308237095
0.003082374363
0.00308238833
0.003082384336
0.003082372016
0.003082378145
0.003082383553
0.003082387061
0.003082381744
0.003082387809
0.003082384841
0.003082386839
0.003082381364
0.003082387617
0.003082383871
0.003082385129
0.003082382072
0.003082388873
0.003082355951
0.003082377309
0.003082387738
0.003082385545
0.003082385318
0.003082366586
0.003082385148
0.003082386625
0.003082386521
0.003082387299
0.003082384701
0.003082382808
0.003082377813
0.003082386504
0.003082371388
0.003082383902
0.003082384883
0.003082355855
0.003082388305
0.003082378309
0.003082374761
0.003082381164
0.003082370399
0.003082378267
0.003082361082
0.003082378985
0.003082375908
0.003082370975
0.003082364531
0.003082369216
0.003082372633
0.00308236738
0.00308237392
0.003082370142
0.003082372658
0.003082352025
0.003082382783
0.003082368027
0.003082366933
0.003082372713
0.003082376522
0.003082385021
0.003082375974
0.003082370691
0.003082371146
0.003082372285
0.003082375682
0.003082370606
0.003082363623
0.003082369988
0.003082352895
0.003082386169
0.003082377008
0.003082379678
0.003082371827
0.003082383597
0.003082378154
0.003082365357
0.003082377334
0.003082367099
0.003082370066
0.003082377858
0.003082381705
0.003082375886
0.003082376221
0.003082370201
0.003082377474
0.003082361629
0.00308238713
0.003082371995
0.003082369249
0.003082376142
0.003082380997
0.003082370473
0.00308237773
0.00308236426
0.003082383878
0.003082370202
0.003082385278
0.00308235591
0.003082371103
0.003082373002
0.003082379408
0.003082379556
0.003082382706
0.003082359983
0.003082383377
0.003082381731
0.003082379626
0.003082381911
0.003082377761
0.003082370698
0.00308232653
0.00308235473
0.003082359964
0.003082373511
0.003082373548
0.003082375747
0.003082371362
0.003082368281
0.003082380442
0.003082376262
0.003082375935
0.003082379985
0.003082371596
0.003082377045
0.003082376202
0.003082371632
0.003082393339
0.003082370959
0.003082373931
0.00308236642
0.00308238762
0.003082386798
0.003082367024
0.003082367032
0.003082371041
0.00308237401
0.003082374264
0.0030823739
0.003082369334
0.003082385215
0.003082367736
0.003082387509
0.003082379829
0.003082385392
0.003082367026
0.003082353247
0.003082365774
0.003082370999
0.003082377849
0.003082375797
0.003082373357
0.003082382911
0.003082376501
0.003082374285
0.003082352907
0.003082365912
0.003082374478
0.00308238755
0.003082383724
0.003082356786
0.003082382346
0.003082383353
0.003082368759
0.003082384893
0.003082371629
0.003082374135
0.003082372252
0.003082375343
0.003082377423
0.003082383254
0.003082379234
0.003082363323
0.003082368189
0.003082380026
0.003082384488
0.003082381637
0.003082373778
0.003082373185
0.003082358025
0.003082383864
0.003082379269
0.003082384267
0.003082380805
0.003082384277
0.003082375372
0.003082363282
0.003082372922
0.003082385952
0.00308238173
0.00308238917
0.003082377629
0.003082384649
0.003082376076
0.003082383168
0.003082389481
0.003082365549
0.003082379121
0.003082368814
0.003082374322
0.003082383372
0.003082383786
0.003082386805
0.003082375406
0.003082384887
0.003082364397
0.003082369314
0.003082375436
0.003082380995
0.003082370732
0.003082376712
0.003082378468
0.003082366491
0.003082382528
0.003082384892
0.003082374393
0.003082378473
0.003082372946
0.003082374276
0.003082370772
0.003082384599
0.003082384019
0.003082375938
0.00308236931
0.00308237982
0.00308236806
0.003082382221
0.003082365525
0.003082378273
0.003082380419
0.003082379147
0.003082364881
0.003082380913
0.003082372678
0.003082377434
0.003082370935
0.003082368423
0.003082373415
0.003082366035
0.003082366561
0.003082355845
0.003082385554
0.003082379892
0.003082371254
0.003082379583
0.003082381117
0.0030823746
0.003082374386
0.003082378501
0.003082370023
0.003082375114
0.003082383192
0.003082363482
0.003082374225
0.003082363819
0.003082380827
0.003082382127
0.003082367516
0.003082370893
0.003082370091
0.003082380685
0.003082372101
0.003082379676
0.003082377447
0.003082373954
0.003082381904
0.003082390077
0.003082358337
0.003082366971
0.003082390322
0.003082365287
0.003082364015
0.003082374784
0.003082377004
0.003082375754
0.003082383597
0.003082379294
0.003082375858
0.003082379125
0.003082377262
0.003082370115
0.003082374438
0.003082373005
0.003082378422
0.003082365026
0.003082374986
0.003082379194
0.003082367112
0.003082365252
0.003082360811
0.003082360463
0.003082381074
0.00308237909
0.003082366737
0.003082365115
0.003082377355
0.003082352895
0.00308236497
0.003082354208
0.003082378934
0.003082374567
0.003082372132
0.00308237328
0.003082369617
0.003082381284
0.003082371062
0.003082380911
0.003082382323
0.003082378041
0.003082378354
0.003082385415
0.003082374686
0.003082381244
0.003082377995
0.003082373386
0.003082382325
0.003082371311
0.003082380483
0.003082373532
0.003082378654
0.003082374198
0.003082369446
0.003082379072
0.003082375267
0.003082384698
0.003082390756
0.003082382666
0.003082374958
0.003082391008
0.00308237718
0.003082377972
0.003082377132
0.00308235385
0.00308237268
0.003082355919
0.003082365149
0.003082386256
0.003082369605
0.003082376425
0.003082367585
0.003082386205
0.003082377199
0.003082375807
0.003082369862
0.003082367744
0.003082381125
0.003082375135
0.003081781953
0.003082364984
0.003082380562
0.003082348944
0.003082365773
0.003082370356
0.003082368916
0.003082367775
0.003082386448
0.003082370253
0.003082377653
0.003082382088
0.003082371312
0.003082377283
0.003082382842
0.003082368997
0.003082365133
0.003082381626
0.00308237213
0.00308238019
0.003082374525
0.003082372259
0.003082370223
0.003082375753
0.003082376589
0.00308238587
0.003082385091
0.003082370526
0.003082371164
0.00308236492
0.00308238534
0.003082390837
0.003082379679
0.003082382914
0.003082371078
0.00308238802
0.003082381162
0.003082376167
0.003082376603
0.003082384894
0.003082379952
0.003082374149
0.003082381797
0.003082376701
0.003082387284
0.003082390004
0.003082374824
0.003082382445
0.00308237444
0.003082378605
0.003082380536
0.003082386552
0.003082373787
0.003082375091
0.003082368724
0.003082381977
0.003082374486
0.00308237693
0.003082380835
0.003082375988
0.003082378014
0.00308237492
0.003082387941
0.003082385755
0.003082378255
0.003082382714
0.003082376055
0.003082376566
0.003082367708
0.003082382878
0.003082376718
0.0030823834
0.003082384317
0.0030823858
0.003082380635
0.003082371422
0.00308238664
0.003082379596
0.003082372486
0.00308238554
0.003082362599
0.003082375114
0.003082366552
0.003082387859
0.003082378372
0.003082381919
0.003082377462
0.003082373484
0.003082286966
0.003082376635
0.003082376299
0.003082376697
0.00308236845
0.003082383497
0.003082380419
0.003082367777
0.003082377635
0.00308237134
0.003082383297
0.003082369481
0.003082371116
0.003082356551
0.00308237334
0.003082363953
0.003082378624
0.003082372505
0.003082372576
0.003082379587
0.003082388669
0.003082378221
0.003082367495
0.003082382345
0.003082369567
0.003082377224
0.003082374935
0.003082386723
0.003082370505
0.003082384883
0.003082369043
0.003082372072
0.003082363041
0.003082368751
0.003082387174
0.003082384523
0.003082366634
0.003082376195
0.003082371689
0.003082371871
0.003082372619
0.003082350528
0.003082382581
0.003082370155
0.003082372088
0.00308238166
0.003082370465
0.003082369887
0.003082381552
0.003082381609
0.003082368404
0.003082372461
0.003082348439
0.003082368139
0.003082375665
0.003082384212
0.003082366205
0.003082379698
0.003082364435
0.00308238401
0.003082371506
0.003082370614
0.003082369859
0.003082372968
0.003082372663
0.003082378872
0.003082374224
0.003082364124
0.003082367124
0.00308238067
0.003082365347
0.003082364291
0.003082383142
0.003082381896
0.003082375292
0.003082382574
0.003082382464
0.003082383747
0.003082374921
0.003082380126
0.00308237109
0.003082382841
0.003082377707
0.003082370704
0.0030823803
0.003082387521
0.003082377581
0.003082374703
0.003082379221
0.003082380852
0.003082370643
0.0030823654
0.003082375032
0.00308237677
0.003082373832
0.003082367533
0.003082378155
0.003082381995
0.003082383176
0.003082376139
0.00308238296
0.003082358501
0.003082369495
0.003082380154
0.003082372912
0.003082375849
0.003082360482
0.003082376222
0.003082378065
0.003082380005
0.003082371224
0.003082382928
0.003082380035
0.003082379545
0.00308238685
0.003082382584
0.003082379998
0.003082383344
0.0030823722
0.003082364438
0.003082383699
0.003082363207
0.003082377202
0.003082365641
0.003082371358
0.003082373781
0.003082382508
0.003082360804
0.003082369322
0.003082372001
0.003082361948
0.003082380548
0.003082371595
0.003082366716
0.0030823714
0.00308236201
0.003082379819
0.003082380719
0.003082337072
0.003082376422
0.003082373406
0.003082368421
0.0030702439
0.003072618555
0.003070980151
0.003061387557
0.003068176722
0.003074397497
0.003075642433
0.003073514158
0.003073961572
0.003074526218
0.003073182209
0.003075716849
0.003076051591
0.003079599515
0.003075579965
0.003074577109
0.003075960549
0.003074190699
0.003055896442
0.003004926804
0.003008576943
0.002907248958
0.002998377578
0.002915717771
0.003071975914
0.00297194179
0.003026716595
0.00306670523
0.003007553706
0.003024804405
0.002897396373
0.003015066018
0.003060586697
0.003022572436
0.003080267942
0.003082372992
0.00308237238
0.003082365573
0.003082368467
0.003082366095
0.00308238495
0.003082364708
0.003082380071
0.003081948764
0.003082379787
0.003082363298
0.003082371668
0.003082364653
0.003082350103
0.003082363385
0.0030823616
0.003082372237
0.003082370472
0.003082365913
0.003082372021
0.003082381083
0.003082375834
0.003082369712
0.003082375218
0.003082379649
0.003082368124
0.003082371258
0.00307291102
0.00307417845
0.003077124228
0.003073256664
0.003068445966
0.00306964316
0.003077666618
0.003068975191
0.003069988687
0.003077378678
0.003071741283
0.003072003039
0.003060884982
0.00303774532
0.002988596429
0.002907450366
0.002953808431
0.003051547967
0.002909591943
0.002895655507
0.002874250538
0.002942519702
0.0002654298989
0.002967524651
0.003040758751
0.003082368688
0.003082347752
0.00308235874
0.003082355976
0.003082376022
0.003082361632
0.00308238302
0.003082376641
0.003082382226
0.003082382729
0.003082355132
0.003082376004
0.003082360748
0.003082366893
0.003082353712
0.003082370665
0.003082377157
0.00308237322
0.003076639383
0.003082361973
0.003082385954
0.003082356458
0.003082374777
0.003082341513
0.003082380522
0.003082349339
0.003071589956
0.003073482092
0.003061671989
0.003071607568
0.003071649109
0.003078500838
0.003072514899
0.003075413944
0.003079286706
0.00307514005
0.00303591491
0.002926236438
0.00292289426
0.002955263761
0.002960005631
0.003077360812
0.003051222165
0.003066289491
0.002982073997
0.003048669006
0.003051576417
0.003060654663
0.002993130838
0.003057065423
0.0002654340337
0.0002654367904
0.0002654394725
0.0002654317176
0.0002654424972
0.0002654399811
0.00286633846
0.0002654429885
0.001573370678
0.0002654291269
0.003060540531
0.003082372263
0.003082380419
0.003082374292
0.003082380282
0.003082368249
0.003082382467
0.003082367306
0.003082375952
0.00308237452
0.003082376383
0.003082370536
0.003082382071
0.003082370582
0.003082378279
0.003082377336
0.003082385182
0.003082373869
0.003082326632
0.003082373639
0.003082377863
0.003082379969
0.003082379379
0.003082368367
0.003082379751
0.00308238045
0.00308238356
0.003082369485
0.00308237824
0.003082362724
0.003082373801
0.003082366205
0.00308237661
0.003082376491
0.003082373049
0.003082376885
0.003082351346
0.003082360833
0.003082373823
0.003061770024
0.003074463865
0.003076209234
0.003076236434
0.003063407729
0.003061539038
0.003074660482
0.003076041608
0.00307838143
0.003075886642
0.003040796826
0.003071331899
0.003071394009
0.003070287259
0.00306877334
0.003072871196
0.00307120782
0.003074573191
0.003070820755
0.003072161917
0.003074669407
0.003057517918
0.002911573553
0.002969659371
0.002904592517
0.002969523268
0.00306890868
0.003041775121
0.002930514744
0.002995881216
0.002947669644
0.003075149605
0.003072148685
0.002936785889
0.002945018624
0.002932193037
0.002915968171
0.002972317748
0.002908839353
0.003082383175
0.003081968958
0.003082378439
0.003082382005
0.003082382534
0.003082366068
0.003080668706
0.003082379754
0.003082357079
0.003082356157
0.00308236732
0.003082346109
0.003080696936
0.003082374985
0.003082368503
0.003082370738
0.003082365191
0.003082372342
0.003082369763
0.003082378316
0.003082367338
0.003082358037
0.003082363233
0.00308236377
0.003082364888
0.003071491576
0.003078580884
0.00307732518
0.003077625742
0.003077564902
0.003078429016
0.003077332357
0.003072093439
0.003075583312
0.003076237068
0.003073775057
0.002956057615
0.002993066446
0.002980385252
0.002973136853
0.003044782219
0.002960394867
0.003044969285
0.003015552631
0.003075355997
0.003030076532
0.003076734087
0.003068419074
0.0002654413083
0.00301760559
0.003082383768
0.003082367079
0.00308235088
0.003082379154
0.003082359096
0.003082371675
0.003082368348
0.003082362403
0.003082356537
0.00308236228
0.003082316254
0.003082378092
0.003082385525
0.003082384405
0.003082378984
0.003082369205
0.00308237763
0.00308235676
0.003082368098
0.003082360164
0.003082372886
0.003082357461
0.003082381766
0.003082355512
0.003082365104
0.003072755435
0.003073746553
0.00307836539
0.003073227105
0.003073291794
0.003078476896
0.003072579018
0.003073635977
0.003073191731
0.003076859476
0.003075338271
0.003071359852
0.002914711674
0.002979150431
0.002986189813
0.003031693593
0.002996229793
0.003004624103
0.003066166319
0.003066343249
0.003020693066
0.002912634583
0.002980272472
0.002935277136
0.003064826262
0.00291478498
0.000265437131
0.0002654329731
0.003082370235
0.003082375739
0.003082372932
0.003082376985
0.00308237183
0.003082376885
0.003082355536
0.003082357198
0.003082367886
0.003082382977
0.003082373307
0.003082375265
0.003082380834
0.003082382924
0.00308236864
0.003082373119
0.003082377298
0.003082360658
0.003082305575
0.003082369416
0.003082369246
0.003082349294
0.003082379837
0.003082379361
0.003082379485
0.003082375727
0.003082368632
0.003082366382
0.00308237241
0.003082368493
0.003082367214
0.003082381703
0.003082371587
0.003066526742
0.003072256179
0.00306740842
0.003072979043
0.003067920322
0.003067546433
0.003074206742
0.003074914628
0.003073206591
0.003012122134
0.003073070387
0.003063355577
0.003064345247
0.003066502922
0.00306684635
0.003077477416
0.003062439492
0.003062271984
0.003067839325
0.003076909568
0.003019668641
0.002924285902
0.003058382315
0.00307043715
0.0002654341206
0.002957015794
0.00294790585
0.00305497517
0.002930385152
0.003015064215
0.003040457158
0.002913130703
0.00305892178
0.002952034581
0.002985298553
0.003059902167
0.003082362833
0.003082367992
0.003082366434
0.003082378534
0.003082360805
0.003082382515
0.003080908781
0.003082362097
0.003082361809
0.003080166336
0.00308238144
0.003082348938
0.003082370251
0.003082344989
0.003072066868
0.003082358465
0.00308236433
0.003082368529
0.003082358673
0.00308238081
0.003082331218
0.003082374342
0.003082370695
0.003082353263
0.003082376185
0.003082353795
0.003082353719
0.003082352988
0.003065799192
0.003077330075
0.003065393816
0.003066690464
0.003075061747
0.003075286655
0.003074931671
0.003063078245
0.003074055989
0.003072756268
0.0002654418943
0.003010204039
0.002957859714
0.0002654300066
0.003074556723
0.002914731719
0.003070114573
0.003032016981
0.0002654373283
0.003010049125
0.003065163607
0.002901840432
0.002924038342
0.003082374683
0.003081146574
0.003082360038
0.003082380178
0.003082360043
0.003082375395
0.003082364413
0.003082381306
0.003082349483
0.003082366218
0.003082356152
0.003082368625
0.00308235617
0.003082366164
0.003082361816
0.003082368723
0.003082363056
0.003082363724
0.003082370623
0.00308237013
0.003082351507
0.003082352086
0.00308237146
0.003082360006
0.003082365875
0.003082373746
0.003082355855
0.003082369613
0.003068312237
0.003069224603
0.003073943958
0.003071782535
0.003056162079
0.003055826189
0.003071645163
0.003051602746
0.003054038686
0.00307892118
0.003075568504
0.003067653231
0.00308193403
0.003075287261
0.003076402138
0.003012471967
0.003064540297
0.002872718097
0.003055583715
0.002965527774
0.002940151306
0.00303529855
0.003052576512
0.002960351975
0.00307394158
0.002978692466
0.000265434058
0.001845232045
0.0002654387568
0.0002654345286
0.0002654268474
0.0002654416431
0.0002654404218
0.002825591476
0.0002654314718
0.0002654399229
0.0002654305895
0.002773456421
0.0002654336786
0.00308235152
0.003082366056
0.003082366927
0.003082360453
0.003082370499
0.003082377241
0.003082381179
0.003082384895
0.003082375799
0.00308237112
0.003082370844
0.003082381657
0.003082384801
0.003082382318
0.003082379125
0.00308238097
0.003082371071
0.003082381663
0.003082378807
0.003082383585
0.003082367668
0.003082351309
0.003082379397
0.003082363358
0.003082376904
0.003082380039
0.003082370233
0.003082346158
0.003082382993
0.00308237321
0.003082361156
0.003082369138
0.003082370593
0.003082376514
0.003082380184
0.003082371418
0.003082378504
0.003077362053
0.003075913134
0.003071547249
0.003070676309
0.003077563186
0.003075794053
0.003036068542
0.003077624566
0.003066740414
0.00307351648
0.003071946593
0.003071639398
0.003041188745
0.003078327224
0.003065085921
0.003075408913
0.003060612315
0.003065249465
0.0002654275268
0.002912433843
0.00306794057
0.00298454203
0.003057568008
0.003017298292
0.002912995936
0.00307361329
0.003069401772
0.002965675857
0.002961504898
0.002920378489
0.002945932494
0.003047330661
0.002992003275
0.003076974832
0.002892310808
0.002959551975
0.003012368781
0.003082367941
0.003082369736
0.003082371255
0.003082380181
0.003082358037
0.003082360199
0.00308236986
0.003082363211
0.003082155299
0.003082369055
0.00308235394
0.003082371909
0.00308236004
0.003082378667
0.003082373713
0.003082372487
0.003082350088
0.003082372169
0.00308233958
0.003082362672
0.003082374186
0.003082363617
0.003082378401
0.003082354551
0.003067620371
0.003070423876
0.003074534766
0.003067089436
0.003068248142
0.003068310813
0.003063188494
0.003074177387
0.003075733798
0.003064017182
0.003066512125
0.003068758078
0.003069570624
0.00306691017
0.003069282203
0.003064250968
0.002922765816
0.002878565058
0.002982061362
0.00300970583
0.003034161376
0.003021354623
0.003054073691
0.002906271146
0.002918815647
0.002994470765
0.003057694938
0.0002654289955
0.0030823833
0.003082371904
0.003082376999
0.003082380184
0.003082369029
0.003082384787
0.003082369532
0.003079515351
0.003082380525
0.003082365055
0.003082377853
0.003082383769
0.003082364496
0.003082372687
0.00308235971
0.003082378881
0.003082379302
0.003082366423
0.003082364036
0.003082372685
0.003082376505
0.003082371383
0.003082376936
0.00308236759
0.003082364069
0.003082371042
0.003079578468
0.003065797991
0.003079774702
0.003073149212
0.00307550577
0.003077528251
0.003075124604
0.003079295323
0.003072093374
0.003078425416
0.003070942632
0.003072387656
0.003078893496
0.003032324147
0.003063399819
0.002956321685
0.003035909267
0.002977374661
0.003048932681
0.003057746031
0.003063684844
0.002939342797
0.002897846117
0.003030472268
0.003015115388
0.0002654362546
0.0002654287882
0.0002654349459
0.002145358572
0.000265429709
0.002851849996
0.0002654305133
0.0002654395441
0.0002654445364
0.0002654393359
0.0002654405881
0.000265435271
0.0002654307487
0.0002654450019
0.0002654500873
0.0002654289844
0.0002654384253
0.0002654404071
0.0002654304346
0.0002654344203
0.0002654266926
0.0002654423994
0.0002654382145
0.0002654407873
0.0002654274852
0.0002654327724
0.0002654320716
0.000265426675
0.0002654398357
0.0002654438066
0.0002654267326
0.0002654331487
0.0002654355421
0.00026542802
0.0002654365608
0.0002654351463
0.0002654500846
0.0002654337888
0.0002654286083
0.0002654281098
0.0002654437569
0.0002654500295
0.0002654365677
0.0002654327158
0.0002654281868
0.0002654458641
0.0002654351197
0.0002654329384
0.0002654453623
0.0002654360015
0.0002654477583
0.0002654416661
0.0002654397243
0.0002654288956
0.000265448602
0.0002654486368
0.0002654317916
0.0002654385172
0.0002654467609
0.0002654381362
0.000265435648
0.0002654298064
0.0002654481926
0.0002654294253
0.0002654412771
0.0002654434283
0.0002654475245
0.000265429873
0.0002654439369
0.0002654282217
0.0002654310469
0.0002654393885
0.0002654306267
0.0002654272198
0.0002654275525
0.0002654332639
0.0002654375829
0.0002654268581
0.0002654338696
0.0002654350657
0.0002654280211
0.0002654405709
0.0002654425514
0.0002654498175
0.0002654451505
0.0002654370419
0.0002654405497
0.0002654399463
0.0002654366215
0.0002654327859
0.0002654451255
0.0002654394259
0.0002654456275
0.0002654360526
0.0002654391485
0.0002654364326
0.0002654402642
0.0002654404357
0.0002654449684
0.0002654365091
0.0002654418333
0.0002654276222
0.0002654399096
0.0002654462761
0.0002654467638
0.0002654394646
0.0002654373362
0.0002654323874
0.0002654306581
0.0002654441333
0.0002654361123
0.0002654364005
0.0002654430364
0.0002654487581
0.0002654393356
0.0002654464689
0.0002654481661
0.0002654371999
0.0002654329973
0.0002654435568
0.0002654369012
0.0002654498154
0.0002654493979
0.0002654485991
0.0002654364276
0.0002654295484
0.0002654460204
0.0002654266218
0.0002654422369
0.0002654333857
0.0002654266981
0.0002654389894
0.0002654355236
0.0002654396218
0.0002654449437
0.0002654403303
0.0002654294302
0.0002654339523
0.0002654379522
0.0002654304031
0.0002654439494
0.0002654395323
0.0002654293132
0.0002654292537
0.0002654340351
0.0002654296431
0.0002654340843
0.000265562983
0.0002654410924
0.0002654279758
0.0002654288978
0.0002654294781
0.0002654460256
0.0002654384122
0.0002654445426
0.0002654403961
0.0002654306072
0.0002654492707
0.0002654478021
0.0002654458518
0.0002654424044
0.000265449855
0.0002654449119
0.000265446905
0.0002654506054
0.0002654317322
0.0002654295148
0.0002654482698
0.0002654265783
0.0002654325127
0.0002654469381
0.0002654493358
0.0002654300125
0.000265435886
0.0002654408704
0.0002654319406
0.0002654417143
0.0002654415778
0.000265435237
0.0002654279002
0.0002654329578
0.0002654373308
0.0002654284165
0.0002654330329
0.0002654343874
0.0002654320935
0.0002654291275
0.0002654289859
0.0002654266402
0.0002654486613
0.0002654370147
0.0002654473917
0.0002654400829
0.0002654372533
0.0002654330692
0.0002654279992
0.0002654368988
0.0002654372859
0.0002654312028
0.0002654436469
0.0002654374486
0.0002654407195
0.0002654299907
0.0002654427814
0.0002654376245
0.0002654468018
0.000265440608
0.0002654360584
0.0002654427034
0.0002654435652
0.0002654433817
0.0002654361757
0.0002654380815
0.0002654325191
0.0002654490474
0.0002654285378
0.0002654283271
0.0002654349875
0.0002654448239
0.0002654318009
0.0002654402987
0.0002654332157
0.0002654353224
0.0002654495247
0.0002654304995
0.0002654269408
0.0002654435762
0.0002654321963
0.0002654311921
0.0002654365193
0.0002654473763
0.0002654444125
0.000265450167
0.0002654418327
0.0002654478583
0.0002654449897
0.0002654311068
0.0002654417262
0.000265440324
0.000265445783
0.0002654396519
0.0002654321812
0.0002654276223
0.0002654401373
0.0002654406656
0.0002654335982
0.0002654417216
0.0002654286254
0.000265435713
0.0002654341557
0.0002654447717
0.0002654483002
0.0002654477875
0.0002654333578
0.0002654314305
0.0002654298995
0.0002654330047
0.0002654467133
0.0002654458553
0.0002654444994
0.0002654320749
0.0002654409775
0.000265444185
0.0002654363199
0.0002654458909
0.0002654292358
0.0002654304469
0.0002654489459
0.0002654399744
0.0002654390376
0.0002654303766
0.0002654384094
0.0002654277532
0.0002654268809
0.000265444336
0.000265434551
0.0002654276578
0.0002654341289
0.0002654374196
0.0002654353739
0.0002654378063
0.000265443827
0.00026544181
0.0002654448581
0.0002654463299
0.0002654425231
0.0002654425233
0.0002654361968
0.000265435434
0.0002654473934
0.0002654485583
0.0002654292864
0.0002654447238
0.0002654346442
0.0002654307907
0.0002654428553
0.0002654396588
0.0002654327987
0.0002654384827
0.0002654375714
0.0002654491864
0.0002654462337
0.0002654440045
0.0002654278516
0.0002654361949
0.0002654506865
0.0002654277833
0.0002654324086
0.0002654292291
0.000265448283
0.0002654352301
0.0002654342446
0.0002654404932
0.0002654291157
0.0002654401371
0.000265428001
0.0002654383676
0.0002654354128
0.0002654469718
0.0002654277732
0.0002654346273
0.0002654281212
0.0002654321153
0.0002654464712
0.0002654507346
0.0002654271149
0.0002654276324
0.0002654356916
0.0002654438266
0.0002654357722
0.0002654459054
0.0002654405949
0.0002654408891
0.0002654293216
0.0002654269359
0.0002654351459
0.0002654449355
0.0002654364699
0.0002654493773
0.0002654378669
0.0002654293278
0.000265427447
0.0002654401576
0.0002654339763
0.0002654338025
0.0002654497063
0.0002654498275
0.0002654475839
0.0002654287911
0.0002654459165
0.0002654304277
0.0002654446077
0.0002654334758
0.0002654290138
0.000265428057
0.0002654484579
0.0002654314361
0.0002654306369
0.0002654410248
0.0002654322425
0.0002654347586
0.0002654391312
0.0002654332137
0.0002654337821
0.0002654297189
0.0002654291582
0.0002654412183
0.0002654406721
0.0002654291778
0.0002654377384
0.0002654501505
0.0002654468335
0.0002654427468
0.0002654378812
0.0002654276041
0.0002654432106
0.0002654403627
0.0002654305307
0.0002654356976
0.0002654275113
0.0002654395931
0.0002654287383
0.0002654276286
0.0002654333659
0.0002654389295
0.0002654407328
0.0002654485568
0.0002654455062
0.000265427122
0.0002654481071
0.0002654367684
0.0002654344087
0.0002654271294
0.0002654451396
0.0002654345863
0.0002654423767
0.0002654383132
0.0002654494526
0.0002654404076
0.0002654274177
0.0002654349752
0.0002654323829
0.0002654339757
0.0002654341231
0.0002654379144
0.0002654400778
0.0002654282964
0.0002654311452
0.0002654393951
0.0002654439571
0.0002654370132
0.0002654407892
0.0002654476933
0.0002654318668
0.0002654397325
0.0002654485401
0.0002654386208
0.0002654429708
0.0002654425739
0.0002654302918
0.0002654446919
0.0002654388954
0.0002654395861
0.000265427062
0.0002654385919
0.0002654435801
0.0002654435771
0.0002654269738
0.0002654430973
0.0002654411553
0.0002654387231
0.0002654425351
0.0002654333676
0.0002654381361
0.0002654410661
0.0002654308325
0.0002654283966
0.0002654349034
0.0002654326131