/*--------------------------------*- C++ -*----------------------------------*\
  =========                 |
  \\      /  F ield         | OpenFOAM: The Open Source CFD Toolbox
   \\    /   O peration     | Website:  https://openfoam.org
    \\  /    A nd           | Version:  7
     \\/     M anipulation  |
\*---------------------------------------------------------------------------*/
FoamFile
{
    version     2.0;
    format      ascii;
    class       scalarField;
    location    "2/lagrangian/coalCloud1";
    object      rb1;
}
// * * * * * * * * * * * * * * * * * * * * * * * * * * * * * * * * * * * * * //


2000
(
0.003090598949
0.003090597593
0.003090597025
0.003090597329
0.003090597386
0.00309059749
0.003090597275
0.003090598341
0.003090597881
0.00309059843
0.003090597986
0.003090598552
0.003090597146
0.003090598159
0.003090597125
0.003090596909
0.003090594456
0.003090597963
0.003090598197
0.003090597378
0.003090598431
0.00309059734
0.00309059752
0.003090596107
0.003090598866
0.003090597667
0.00309059756
0.003090598464
0.003090598159
0.003090597856
0.003090597806
0.003090597759
0.003090597575
0.003090596852
0.003090597896
0.003090598521
0.003090598247
0.003090597151
0.003090598117
0.003090598239
0.003090598609
0.00309059864
0.003090597757
0.003090597722
0.00309059824
0.003090596658
0.003090596871
0.003090597589
0.003090598616
0.00309059902
0.003090598487
0.003090597909
0.003090596806
0.003090598563
0.003090598213
0.003090598237
0.003090598873
0.003090598508
0.003090597348
0.003090598311
0.003090598738
0.003090597768
0.003090597386
0.003090597847
0.003090597543
0.003090597246
0.003090598152
0.00309059585
0.003090598083
0.003090597037
0.003090598113
0.003090597515
0.003090597341
0.003090597623
0.003090598171
0.00309059882
0.003090598394
0.003090597297
0.003090596917
0.003090596857
0.003090596062
0.003090597921
0.003090597901
0.003090595798
0.003090596376
0.003090597363
0.003090595131
0.003090597749
0.003090598515
0.003090595998
0.003090597903
0.003090597602
0.003090595715
0.003090597686
0.003090598065
0.003090597328
0.003090597733
0.003090597671
0.003090597597
0.003090597698
0.003090595832
0.003090598277
0.003090597709
0.00309059796
0.003090598096
0.003090597634
0.003090597653
0.003090596807
0.003090597558
0.003090597442
0.003090596453
0.003090597218
0.003090596562
0.003090597918
0.003090597415
0.003090598462
0.003090598671
0.003090597038
0.003090597561
0.003090597343
0.003090598067
0.003090597194
0.003090598138
0.003090597433
0.003090597524
0.003090597618
0.003090597516
0.003090597967
0.003090597623
0.003090595073
0.003090596767
0.003090598307
0.003090598246
0.003090597695
0.003090597971
0.003090596333
0.003090598321
0.003090597775
0.003090599309
0.003090597771
0.003090597492
0.003090597475
0.003090598168
0.003090596179
0.003090598308
0.003090598792
0.003090597268
0.003090597441
0.003090597994
0.003090597889
0.003090597155
0.003090597186
0.003090597395
0.003090597038
0.003090596571
0.003090598762
0.003090597317
0.003090598423
0.003090597747
0.0030905986
0.003090598578
0.003090597568
0.003090597373
0.003090598151
0.00309059744
0.003090597529
0.003090596569
0.003090598453
0.003090598099
0.003090597616
0.003090597594
0.003090597836
0.003090597342
0.0030905979
0.003090597802
0.003090598756
0.003090597541
0.003090597624
0.003090598082
0.003090598395
0.00309059624
0.003090598108
0.003090597906
0.003090596867
0.003090595701
0.003090596624
0.003090597793
0.003090597063
0.003090597577
0.003090596941
0.003090598379
0.003090597779
0.003090596349
0.003090598129
0.00309059656
0.003090597314
0.003090597185
0.003090598812
0.003090597556
0.003090598186
0.003090597786
0.003090597613
0.003090597671
0.003090596633
0.003090597843
0.003090598043
0.003090597672
0.003090596544
0.003090597839
0.003090597965
0.00309059816
0.003090597438
0.0030905941
0.003090596982
0.003090596564
0.003090597663
0.003090597905
0.00309059803
0.003090598515
0.003090596864
0.003090598072
0.003090597523
0.003090599264
0.00309059915
0.003090597712
0.003090598109
0.003090598897
0.00309059847
0.003090597446
0.003090598685
0.003090597153
0.003090598437
0.003090597777
0.00309059714
0.003090597478
0.00309059885
0.003090598467
0.003090597244
0.003090597852
0.00309059839
0.003090598737
0.00309059821
0.003090598799
0.003090598519
0.003090598716
0.003090598173
0.003090598792
0.003090598423
0.003090598547
0.003090598244
0.003090598917
0.003090595645
0.003090597769
0.003090598806
0.003090598586
0.003090598563
0.003090596705
0.003090598547
0.003090598672
0.003090598683
0.003090598759
0.003090598503
0.003090598314
0.00309059782
0.003090598661
0.003090597181
0.003090598424
0.003090598521
0.003090595636
0.00309059886
0.00309059787
0.003090597516
0.003090598154
0.003090597083
0.003090597864
0.00309059615
0.003090597937
0.003090597633
0.003090597141
0.003090596495
0.003090596966
0.003090597306
0.003090596784
0.003090597433
0.003090597058
0.003090597308
0.003090595255
0.003090598315
0.003090596847
0.003090596739
0.003090597316
0.003090597692
0.003090598536
0.003090597638
0.003090597112
0.00309059716
0.003090597271
0.003090597609
0.003090597106
0.003090596409
0.003090597042
0.003090595341
0.003090598648
0.00309059774
0.003090598005
0.003090597225
0.003090598394
0.003090597854
0.003090596583
0.003090597772
0.003090596756
0.003090597049
0.003090597828
0.003090598211
0.003090597628
0.003090597662
0.003090597064
0.003090597786
0.003090596211
0.003090598728
0.003090597242
0.003090596968
0.003090597654
0.003090598139
0.00309059709
0.003090597812
0.003090596473
0.003090598422
0.003090597064
0.003090598561
0.003090595641
0.003090597154
0.003090597343
0.003090597982
0.003090597994
0.003090598308
0.003090596048
0.003090598375
0.003090598212
0.003090598003
0.003090598229
0.003090597817
0.003090597112
0.00309059271
0.003090595525
0.003090596046
0.003090597393
0.003090597397
0.003090597618
0.003090597182
0.003090596873
0.003090598082
0.003090597667
0.003090597636
0.003090598036
0.003090597204
0.003090597744
0.00309059766
0.003090597207
0.003090599361
0.003090597139
0.003090597435
0.003090596687
0.003090598795
0.003090598714
0.003090596751
0.003090596748
0.003090597148
0.003090597443
0.003090597468
0.003090597432
0.003090596978
0.003090598555
0.003090596819
0.003090598781
0.003090598023
0.003090598575
0.003090596751
0.003090595378
0.003090596624
0.003090597145
0.003090597825
0.00309059762
0.003090597377
0.003090598332
0.003090597691
0.00309059747
0.003090595341
0.003090596637
0.003090597489
0.003090598788
0.003090598408
0.003090595729
0.003090598272
0.003090598372
0.003090596922
0.003090598526
0.003090597206
0.003090597456
0.00309059727
0.003090597575
0.003090597783
0.003090598361
0.003090597963
0.00309059638
0.003090596866
0.003090598041
0.003090598485
0.003090598201
0.003090597419
0.003090597361
0.003090595852
0.003090598422
0.003090597965
0.003090598462
0.003090598118
0.003090598463
0.003090597577
0.003090596374
0.003090597334
0.00309059863
0.00309059821
0.00309059895
0.003090597802
0.003090598499
0.003090597648
0.003090598352
0.003090598979
0.003090596602
0.00309059795
0.003090596926
0.003090597473
0.003090598374
0.003090598414
0.003090598717
0.00309059758
0.003090598523
0.003090596485
0.003090596974
0.003090597584
0.003090598139
0.003090597118
0.003090597712
0.003090597885
0.003090596694
0.003090598292
0.003090598524
0.00309059748
0.003090597885
0.003090597336
0.003090597468
0.003090597121
0.003090598494
0.003090598436
0.003090597633
0.003090596975
0.003090598019
0.003090596852
0.003090598262
0.003090596597
0.003090597866
0.00309059808
0.003090597954
0.003090596535
0.00309059813
0.00309059731
0.003090597783
0.003090597137
0.003090596887
0.003090597384
0.003090596648
0.003090596702
0.003090595636
0.00309059859
0.003090598031
0.003090597169
0.003090597997
0.00309059815
0.003090597502
0.003090597479
0.00309059789
0.003090597049
0.003090597553
0.003090598356
0.003090596385
0.003090597464
0.003090596431
0.00309059812
0.00309059825
0.003090596799
0.003090597133
0.003090597052
0.003090598107
0.003090597252
0.003090598006
0.003090597784
0.003090597438
0.003090598229
0.003090599039
0.003090595884
0.003090596743
0.003090599043
0.003090596576
0.003090596449
0.003090597521
0.003090597742
0.003090597615
0.003090598395
0.003090597967
0.003090597625
0.003090597951
0.003090597767
0.003090597055
0.003090597485
0.003090597344
0.003090597883
0.003090596549
0.003090597542
0.003090597957
0.003090596758
0.003090596571
0.00309059613
0.003090596095
0.003090598148
0.003090597948
0.003090596719
0.003090596559
0.003090597776
0.003090595336
0.003090596544
0.003090595463
0.003090597934
0.003090597498
0.003090597256
0.003090597373
0.003090597007
0.003090598166
0.00309059715
0.00309059813
0.00309059827
0.003090597844
0.003090597876
0.003090598577
0.003090597512
0.003090598162
0.003090597839
0.003090597379
0.003090598271
0.003090597176
0.003090598089
0.003090597394
0.003090597905
0.00309059746
0.003090596988
0.003090597945
0.003090597568
0.003090598503
0.003090599086
0.003090598305
0.003090597536
0.003090599131
0.003090597758
0.003090597836
0.003090597752
0.003090595437
0.00309059731
0.003090595642
0.003090596561
0.003090598643
0.003090597004
0.003090597681
0.003090596804
0.003090598656
0.003090597758
0.003090597622
0.003090597028
0.003090596818
0.00309059815
0.003090597554
0.003090538487
0.003090596544
0.003090598093
0.003090594943
0.003090596624
0.003090597079
0.003090596935
0.003090596823
0.00309059868
0.003090597069
0.003090597805
0.003090598246
0.003090597174
0.003090597768
0.003090598321
0.003090596944
0.00309059656
0.0030905982
0.003090597255
0.003090598058
0.003090597495
0.003090597269
0.003090597067
0.003090597616
0.003090597698
0.003090598622
0.003090598543
0.003090597095
0.00309059716
0.003090596539
0.003090598569
0.003090599114
0.003090598006
0.003090598327
0.00309059715
0.003090598835
0.003090598153
0.003090597657
0.0030905977
0.003090598525
0.003090598033
0.003090597455
0.003090598217
0.00309059771
0.003090598762
0.003090599033
0.003090597522
0.003090598285
0.003090597484
0.003090597897
0.00309059809
0.003090598687
0.00309059742
0.003090597549
0.003090596915
0.003090598236
0.003090597489
0.003090597735
0.00309059812
0.003090597639
0.00309059784
0.003090597532
0.003090598828
0.003090598614
0.003090597864
0.003090598307
0.003090597645
0.003090597695
0.003090596814
0.003090598323
0.00309059771
0.003090598375
0.003090598472
0.003090598612
0.0030905981
0.003090597185
0.003090598702
0.003090597998
0.00309059729
0.003090598587
0.00309059631
0.003090597537
0.003090596685
0.003090598817
0.003090597877
0.003090598229
0.003090597786
0.003090597391
0.003090588778
0.003090597703
0.003090597671
0.00309059771
0.00309059689
0.003090598387
0.00309059808
0.003090596823
0.003090597803
0.003090597178
0.003090598367
0.003090596992
0.003090597141
0.003090595705
0.003090597376
0.003090596443
0.003090597902
0.003090597293
0.0030905973
0.003090597997
0.0030905989
0.003090597862
0.003090596795
0.003090598271
0.003090597003
0.003090597762
0.003090597534
0.003090598706
0.003090597094
0.003090598524
0.003090596949
0.003090597249
0.003090596352
0.00309059692
0.003090598749
0.003090598489
0.00309059671
0.003090597661
0.003090597212
0.00309059723
0.003090597306
0.003090595104
0.003090598293
0.003090597061
0.003090597251
0.003090598202
0.00309059709
0.003090597033
0.003090598191
0.003090598199
0.003090596887
0.003090597289
0.003090594893
0.003090596858
0.003090597606
0.003090598458
0.003090596667
0.003090598008
0.00309059649
0.003090598439
0.003090597194
0.003090597105
0.00309059703
0.003090597339
0.003090597299
0.003090597926
0.003090597465
0.003090596459
0.003090596758
0.003090598105
0.003090596581
0.003090596476
0.00309059835
0.003090598228
0.003090597572
0.003090598293
0.003090598283
0.003090598412
0.003090597533
0.00309059805
0.003090597151
0.00309059832
0.00309059781
0.003090597113
0.00309059807
0.003090598788
0.003090597797
0.003090597514
0.003090597963
0.003090598127
0.003090597108
0.003090596587
0.003090597545
0.003090597718
0.003090597425
0.0030905968
0.003090597855
0.003090598239
0.003090598354
0.003090597656
0.003090598327
0.0030905959
0.003090596979
0.003090598056
0.003090597332
0.003090597626
0.003090596097
0.003090597661
0.003090597845
0.00309059804
0.003090597166
0.003090598311
0.003090598044
0.003090597989
0.003090598699
0.003090598297
0.003090598039
0.003090598364
0.003090597262
0.00309059649
0.003090598405
0.003090596369
0.003090597758
0.003090596608
0.003090597162
0.00309059742
0.003090598288
0.003090596129
0.003090596953
0.003090597244
0.003090596241
0.003090598096
0.003090597186
0.003090596717
0.003090597184
0.00309059625
0.003090598024
0.003090598089
0.003090593765
0.003090597668
0.003090597356
0.003090596885
0.003089393495
0.003089628622
0.003089466354
0.003088519044
0.00308918904
0.003089804931
0.003089928409
0.003089717356
0.003089761699
0.003089817692
0.003089684464
0.0030899358
0.003089969009
0.003090321413
0.003089922225
0.003089822747
0.003089959978
0.003089784437
0.003087978797
0.003083034515
0.003083384383
0.003073911906
0.003082408397
0.003074684635
0.003089564953
0.003079902276
0.003085132692
0.003089043636
0.003083286239
0.003084947651
0.003073017266
0.003084007966
0.003088440154
0.003084731874
0.003090387879
0.00309059734
0.003090597282
0.003090596602
0.00309059689
0.003090596654
0.003090598508
0.003090596518
0.003090598023
0.003090555099
0.003090598015
0.003090596357
0.003090597205
0.00309059651
0.003090595062
0.003090596377
0.003090596207
0.003090597268
0.003090597074
0.003090596628
0.003090597244
0.003090598121
0.003090597626
0.003090596994
0.003090597543
0.003090597987
0.003090596843
0.003090597158
0.003089657598
0.003089783206
0.0030900755
0.003089691848
0.003089215654
0.00308933404
0.003090129363
0.00308926799
0.003089368228
0.003090100762
0.003089541715
0.003089567638
0.003088469537
0.003086203513
0.003081477196
0.003073930251
0.003078202817
0.003087552029
0.003074125326
0.003072859673
0.003070933828
0.003077152859
0.001424949314
0.003079486832
0.003086497119
0.003090596915
0.00309059483
0.003090595924
0.00309059565
0.003090597643
0.00309059621
0.003090598336
0.0030905977
0.003090598254
0.003090598312
0.003090595565
0.003090597632
0.003090596122
0.003090596736
0.003090595423
0.003090597111
0.003090597754
0.003090597365
0.003090027369
0.003090596242
0.003090598629
0.003090595695
0.003090597518
0.003090594201
0.003090598067
0.003090594987
0.003089526721
0.00308971419
0.003088547056
0.003089528473
0.003089532599
0.003090212235
0.003089618351
0.003089905742
0.003090290333
0.00308987858
0.003086025376
0.003075649191
0.003075342136
0.003078338623
0.00307878183
0.003090098994
0.003087520091
0.003089002575
0.003080858812
0.00308726998
0.003087554819
0.003088446847
0.003081908304
0.003088093691
0.002353122251
0.000370452275
0.002298441169
0.001647668352
0.002171493117
0.0008307085188
0.003070227507
0.001570892355
0.002987766871
0.001921752751
0.003088435618
0.00309059727
0.003090598077
0.003090597469
0.003090598066
0.003090596869
0.003090598283
0.003090596775
0.003090597636
0.003090597495
0.003090597679
0.003090597095
0.003090598221
0.003090597103
0.003090597867
0.003090597772
0.003090598552
0.003090597427
0.003090592727
0.003090597378
0.003090597798
0.003090598009
0.003090597955
0.003090596854
0.00309059799
0.003090598081
0.003090598372
0.003090596994
0.003090597842
0.003090596298
0.003090597421
0.003090596648
0.003090597681
0.003090597671
0.00309059732
0.003090597701
0.003090595187
0.003090596133
0.003090597406
0.003088556734
0.003089811504
0.003089984665
0.003089987344
0.003088718153
0.00308853396
0.003089831013
0.003089968031
0.003090200348
0.003089952635
0.003086500832
0.003089501166
0.003089507323
0.003089397789
0.003089248035
0.003089653651
0.003089488901
0.003089822336
0.003089450592
0.003089583381
0.003089831883
0.003088138182
0.003074306074
0.003079687498
0.003073670243
0.003079674697
0.003089261411
0.003086596258
0.003076043032
0.0030821703
0.003077631088
0.00308987953
0.003089582065
0.003076621917
0.003077384752
0.003076197768
0.00307470753
0.00307993768
0.003074056766
0.003090598327
0.003090557116
0.00309059788
0.003090598233
0.003090598267
0.003090596652
0.003090427734
0.003090598002
0.003090595756
0.003090595666
0.003090596778
0.003090594656
0.003090430545
0.003090597513
0.003090596895
0.003090597116
0.003090596542
0.003090597278
0.003090597016
0.003090597872
0.003090596769
0.003090595853
0.003090596368
0.003090596427
0.003090596536
0.003089516999
0.003090220183
0.003090095452
0.003090125292
0.003090119265
0.00309020509
0.003090096169
0.0030895766
0.003089922551
0.003089987413
0.003089743213
0.003078412747
0.003081902187
0.003080699039
0.003080014843
0.003086889852
0.00307881826
0.003086908131
0.003084054814
0.003089900003
0.003085458301
0.003090036765
0.003089213004
0.000637773027
0.003084252572
0.003090598407
0.003090596752
0.003090595141
0.003090597952
0.003090595957
0.003090597212
0.003090596878
0.003090596289
0.003090595704
0.003090596274
0.003090591692
0.003090597852
0.003090598565
0.003090598449
0.00309059791
0.003090596942
0.003090597804
0.003090595727
0.003090596838
0.003090596065
0.003090597315
0.003090595793
0.003090598215
0.0030905956
0.003090596553
0.003089642181
0.003089740389
0.003090198774
0.003089688904
0.003089695319
0.003090209854
0.003089624704
0.003089729423
0.003089685417
0.003090049211
0.003089898246
0.003089503957
0.003074592656
0.003080582302
0.003081248787
0.0030856152
0.00308220353
0.00308300554
0.003088990411
0.003089007887
0.003084550373
0.003074402919
0.003080688376
0.003076482472
0.003088858117
0.003074599357
0.0005714638471
0.001209776711
0.003090597065
0.003090597614
0.003090597335
0.003090597736
0.003090597226
0.003090597727
0.003090595605
0.00309059577
0.003090596834
0.003090598333
0.003090597373
0.003090597569
0.003090598118
0.003090598331
0.003090596904
0.00309059734
0.003090597773
0.003090596096
0.003090590627
0.003090596983
0.003090596969
0.003090594976
0.003090598003
0.003090597962
0.003090597988
0.003090597616
0.003090596911
0.00309059668
0.003090597282
0.003090596872
0.003090596752
0.003090598205
0.003090597194
0.003089025992
0.003089592701
0.003089113103
0.003089664327
0.003089163685
0.003089126753
0.003089786012
0.003089856209
0.00308968688
0.003083724813
0.003089673381
0.003088713021
0.003088810655
0.00308902365
0.003089057569
0.003090110547
0.003088622711
0.003088606196
0.003089155691
0.003090054181
0.003084451503
0.003075469927
0.003088223191
0.003089412612
0.001577488508
0.003078502247
0.003077653049
0.0030878883
0.003076031078
0.003084007791
0.003086467706
0.003074448214
0.003088276267
0.003078037425
0.003081164267
0.003088372753
0.00309059633
0.003090596843
0.003090596689
0.003090597892
0.00309059613
0.003090598288
0.003090451629
0.003090596254
0.003090596225
0.003090377774
0.003090598168
0.003090594949
0.003090597067
0.003090594544
0.003089573951
0.003090595895
0.003090596452
0.003090596885
0.003090595917
0.003090598105
0.003090593183
0.003090597458
0.003090597094
0.003090595376
0.003090597662
0.003090595412
0.003090595422
0.003090595349
0.003088954158
0.003090095931
0.00308891413
0.003089042179
0.003089870804
0.003089893118
0.003089857915
0.003088685685
0.003089771079
0.003089642258
0.001566569507
0.003083540557
0.003078581116
0.002435563721
0.003089820721
0.00307459449
0.003089380703
0.003085646588
0.002687549004
0.003083525671
0.003088891408
0.003073420227
0.003075447177
0.003090597508
0.003090475286
0.003090596053
0.003090598054
0.003090596053
0.00309059758
0.003090596488
0.003090598168
0.003090595002
0.003090596667
0.003090595667
0.003090596906
0.003090595668
0.003090596662
0.003090596228
0.003090596918
0.003090596345
0.003090596414
0.003090597108
0.003090597054
0.003090595201
0.003090595258
0.003090597187
0.003090596037
0.003090596635
0.003090597411
0.003090595635
0.003090597006
0.003089202442
0.003089292653
0.003089759969
0.003089545806
0.003088004901
0.003087971897
0.003089532205
0.003087557383
0.003087796358
0.003090254002
0.003089921073
0.003089137305
0.003090553634
0.003089893173
0.003090003817
0.003083758445
0.003088829893
0.003070796767
0.003087948065
0.003079299329
0.003076933354
0.003085965423
0.003087652879
0.003078814244
0.003089759723
0.003080539026
0.002504386307
0.003002494449
0.001304359785
0.00208294844
0.002195658413
0.002899687552
0.002743149449
0.003066637155
0.002904769151
0.001844754363
0.002773200381
0.003062157937
0.001364317928
0.003090595203
0.003090596649
0.003090596738
0.00309059609
0.003090597067
0.003090597767
0.003090598136
0.003090598498
0.00309059762
0.003090597154
0.003090597126
0.003090598201
0.003090598512
0.003090598245
0.003090597935
0.003090598128
0.003090597149
0.003090598198
0.003090597918
0.003090598394
0.003090596813
0.00309059518
0.00309059798
0.003090596377
0.00309059773
0.003090598015
0.00309059704
0.003090594659
0.003090598318
0.003090597341
0.003090596144
0.003090596953
0.003090597079
0.003090597674
0.003090598031
0.003090597165
0.003090597862
0.003090099117
0.003089955286
0.003089522489
0.003089436291
0.003090119083
0.003089943454
0.003086040324
0.003090125178
0.003089047101
0.003089717592
0.003089562032
0.003089531632
0.003086539062
0.003090194973
0.003088883741
0.003089905252
0.003088442684
0.003088899883
0.002968697813
0.003074384591
0.003089165704
0.00308109256
0.003088143104
0.003084222959
0.003074435912
0.003089727186
0.00308931018
0.003079313234
0.003078922174
0.003075111365
0.003077469633
0.003087138996
0.003081801003
0.003090060663
0.003072557299
0.003078739382
0.003083748525
0.003090596838
0.003090597017
0.003090597168
0.003090598033
0.003090595854
0.003090596069
0.003090597031
0.003090596368
0.003090575645
0.00309059695
0.003090595446
0.003090597234
0.003090596031
0.003090597908
0.003090597416
0.003090597291
0.003090595057
0.003090597237
0.003090594014
0.003090596312
0.00309059746
0.003090596408
0.003090597862
0.003090595497
0.003089134061
0.003089411309
0.00308981855
0.003089081595
0.00308919609
0.003089202298
0.003088696554
0.003089783097
0.003089937486
0.003088778284
0.003089024559
0.003089246503
0.003089326885
0.003089063874
0.003089298351
0.003088801346
0.003075330347
0.003071320252
0.00308085761
0.00308349272
0.003085854882
0.003084614241
0.003087799796
0.003073822919
0.003074968157
0.003082035902
0.003088155587
0.001634500508
0.003090598347
0.003090597234
0.003090597738
0.003090598054
0.003090596945
0.003090598508
0.003090597
0.003090313048
0.003090598088
0.003090596551
0.003090597813
0.003090598409
0.003090596496
0.003090597309
0.003090596019
0.003090597907
0.003090597942
0.00309059669
0.00309059644
0.00309059731
0.003090597663
0.003090597161
0.003090597731
0.003090596799
0.003090596451
0.003090597147
0.003090319322
0.003088954029
0.003090338846
0.003089681199
0.00308991486
0.003090115616
0.003089877053
0.00309029119
0.003089576573
0.003090204741
0.003089462647
0.003089605723
0.003090251251
0.003085676404
0.003088717397
0.003078437395
0.003086024835
0.003080414553
0.0030872958
0.003088160613
0.0030887455
0.003076858487
0.003073058002
0.003085496669
0.003084012723
0.0008107415208
0.001785299972
0.002859080791
0.002944487055
0.002180711433
0.003068941801
0.0003704553208
0.0003704577286
0.0003704650318
0.0006056002173
0.0003704630267
0.0003704631781
0.000370455398
0.0003704644154
0.0003704704289
0.0003704524594
0.0003704604993
0.0003704593295
0.0003704505375
0.0003704509979
0.000370452667
0.0003704648707
0.00154507192
0.0003704650301
0.0003704493313
0.001609634769
0.002678374758
0.0003704467498
0.0003704607741
0.000370463951
0.001637676827
0.002673526569
0.0003704613703
0.0003704558439
0.000370458091
0.0003704619456
0.0003704661671
0.0003704618407
0.0003704533814
0.0003704522875
0.0003704635737
0.0003704657802
0.0003704574723
0.0003704580177
0.0003704543652
0.0003704618185
0.0003704548846
0.0003704535169
0.0003704630115
0.0003704605756
0.000370466417
0.0003704593302
0.0003704606693
0.000370453958
0.0003704688815
0.0003704632561
0.00037045676
0.0003704581595
0.0003704692632
0.0003704564558
0.0003704579025
0.000370448344
0.000370467892
0.0003704562248
0.0003704609429
0.0003704570447
0.0003704647555
0.0003704530481
0.0003704635696
0.0003704547737
0.0003704498495
0.0003704596826
0.0003704523423
0.0003704563616
0.0003704523667
0.0003704581368
0.0003704578311
0.0003704507046
0.0003704581234
0.0003704545438
0.0003704502852
0.0003704576957
0.0003704650695
0.0003704664253
0.0003704634558
0.0003704549119
0.0003704623173
0.0003704609707
0.0003704595884
0.0003704578479
0.0003704653429
0.0003704591177
0.000370468769
0.0003704591099
0.0003704594761
0.0003704561556
0.0003704566073
0.0003704598928
0.000370462218
0.0003704590212
0.0003704604452
0.0003704502238
0.0003704557163
0.000370464027
0.0003704635606
0.0003704645541
0.0003704558116
0.0003704556553
0.0003704558422
0.0003704625353
0.0003704553564
0.0003704562524
0.0003704633003
0.0003704660035
0.0003704614247
0.0003704646173
0.0003704685937
0.0003704572379
0.0003704598327
0.0003704670228
0.0003704583752
0.0003704698818
0.0003704626577
0.0003704678641
0.0003704565617
0.0003704571261
0.0003704632495
0.0003704516102
0.0003704578966
0.0003704548839
0.001341982986
0.0003704596517
0.0003704512948
0.0003704635085
0.0003704635223
0.0003704625576
0.0003704549086
0.0003704508666
0.0003704614132
0.0003704481459
0.000370463493
0.000516037552
0.000526817644
0.000370454169
0.0003704545531
0.000370450354
0.0003704527583
0.00276603041
0.000370455701
0.0003704511346
0.0003704516455
0.0003704516503
0.000370466274
0.0003704601135
0.0003704648872
0.0003704621154
0.000370454691
0.000370466971
0.000370464717
0.0003704627192
0.0003704606689
0.0003704670261
0.0003704656877
0.0003704696143
0.0003704668114
0.0003704553589
0.0003704540276
0.0003704652583
0.0003704487801
0.0003704615549
0.0003704656514
0.0003704636766
0.001349412835
0.0003704629313
0.0003704605703
0.0004782684967
0.0003704624634
0.0003704647145
0.0003704568489
0.000370447461
0.0003704551313
0.0003704589472
0.0009091291769
0.001882159689
0.0003704555498
0.0003704495245
0.001370653278
0.0003704551552
0.002279591085
0.0003704640361
0.0003704549035
0.0003704674191
0.000370465678
0.0003704569914
0.0003704566483
0.000370455747
0.0003704575928
0.0003704625143
0.0003704549347
0.0003704620255
0.0003704576011
0.0003704620202
0.0003704565718
0.0003704609981
0.0003704582577
0.0003704625542
0.0003704606693
0.0003704610215
0.0003704672016
0.0003704601798
0.0003704616273
0.0003704541182
0.0003704555706
0.0003704515284
0.0003704658311
0.0003704556014
0.0003704488207
0.0003704578236
0.000370461696
0.000370453023
0.0003704583149
0.0003704583455
0.0003704590664
0.0003704717166
0.0003704558192
0.0003704526359
0.0003704631136
0.000370452121
0.0003704540065
0.0003704546362
0.0003704650429
0.0003704612865
0.0003704688206
0.0003704605983
0.0003704663943
0.0003704659039
0.000370452507
0.000370462825
0.0003704567876
0.0003704689692
0.0003704596515
0.000370456725
0.0003704492079
0.0003704616457
0.0003704594831
0.0003704550419
0.001466041308
0.0003704488902
0.000370462492
0.0003704617309
0.0003704679911
0.0003704664231
0.0003704683599
0.000370458742
0.000370460864
0.0003704477664
0.0003704513699
0.0003704661552
0.000370465485
0.0003704663098
0.0006334979212
0.0003704560495
0.0003704678082
0.0003704519299
0.0003704644579
0.0003704568644
0.0003704485092
0.0003704659818
0.000370458533
0.0003704599925
0.000370458208
0.0003704616121
0.0003704488914
0.0005255383274
0.001513842365
0.0003704616645
0.0003704516222
0.0003704557582
0.0003704628429
0.0003704612753
0.0003704587549
0.0003704600142
0.0003704601233
0.0003704633278
0.0003704631438
0.0003704631628
0.0003704632545
0.0003704580348
0.0003704582665
0.0003704665631
0.0003704683002
0.0003704523645
0.0003704633999
0.000370455799
0.0003704542729
0.0003704605555
0.0003704615113
0.000370460633
0.0003704633271
0.0003704574915
0.0003704717388
0.0003704660675
0.0003704668847
0.0003704524621
0.0003704558134
0.0003704693507
0.0003704540433
0.0003704567728
0.0003704511313
0.0003704696738
0.000370458506
0.0003704573286
0.0003704552007
0.0003704501603
0.0003704591942
0.001148416899
0.0003704567806
0.0003704566566
0.0003704699581
0.0003704499472
0.0003704588254
0.0003704502538
0.0003704573626
0.0003704651352
0.0003704710101
0.0003704553312
0.0003704532861
0.0003704603263
0.0003704666207
0.000370461568
0.0003704658341
0.0003704626246
0.0003704631461
0.000370451872
0.0003704523603
0.0003704563791
0.000370463009
0.0003704607526
0.0003704697381
0.0003704600853
0.000370454592
0.0003704512689
0.000370460993
0.0003704508037
0.0003704521616
0.0003704662625
0.0003704660409
0.0003704674884
0.0003704473952
0.000370467355
0.0003704574413
0.0003704601395
0.0003704525931
0.0008616992161
0.0003704559108
0.0003704668412
0.002163796695
0.0003704521795
0.0003704628345
0.0003704528333
0.000370457452
0.000370462501
0.0003704541168
0.0003704574627
0.0003704562459
0.00037045237
0.000370460839
0.0003704624893
0.0003704554617
0.0003704575202
0.0003704666126
0.0003704648378
0.0003704639728
0.0003704633452
0.0003704538504
0.0003704623872
0.0003704605956
0.0003704518519
0.0003704578232
0.000370452571
0.0003704587109
0.0003704560962
0.0003704475197
0.0003704545033
0.0003704601041
0.0003704583531
0.0003704675043
0.0003704675658
0.0003704552711
0.0003704685923
0.0003704601439
0.0003704514566
0.0003704507421
0.000489338155
0.0003704588274
0.0003704571347
0.0003704619007
0.0003704688004
0.0003704659609
0.0003704540982
0.0003704528045
0.0003704516582
0.000370457329
0.0003704572423
0.0003704585946
0.0003704596829
0.0003704561009
0.0003704583207
0.0003704554737
0.0003704656066
0.0003704640927
0.000370464493
0.0003704647471
0.0003704541924
0.0003704610292
0.0003704699173
0.0003704632167
0.0003704607786
0.000370464906
0.0003704565029
0.0003704683735
0.0003704610099
0.0003704659825
0.0003704529651
0.0003704609358
0.0003704642879
0.0003704641502
0.0003704522665
0.0003704641217
0.0003704563964
0.0003704584722
0.0003704643445
0.0003704554208
0.0006174377847
0.0003704661908
0.0003704497481
0.0003704533042
0.0003704559453
0.0003704606628
0.0004970885829
0.0003704642873
0.0003704624541
0.000370457896
0.0003704626836