/*--------------------------------*- C++ -*----------------------------------*\
  =========                 |
  \\      /  F ield         | OpenFOAM: The Open Source CFD Toolbox
   \\    /   O peration     | Website:  https://openfoam.org
    \\  /    A nd           | Version:  7
     \\/     M anipulation  |
\*---------------------------------------------------------------------------*/
FoamFile
{
    version     2.0;
    format      ascii;
    class       scalarField;
    location    "2/lagrangian/coalCloud1";
    object      rb2;
}
// * * * * * * * * * * * * * * * * * * * * * * * * * * * * * * * * * * * * * //


2000
(
0.003091698949
0.003091697593
0.003091697027
0.00309169733
0.003091697388
0.003091697491
0.003091697276
0.003091698341
0.003091697884
0.003091698432
0.003091697987
0.003091698553
0.003091697147
0.003091698159
0.003091697127
0.00309169691
0.00309169446
0.003091697964
0.003091698197
0.00309169738
0.003091698432
0.003091697341
0.003091697521
0.003091696109
0.003091698867
0.003091697669
0.003091697561
0.003091698465
0.00309169816
0.003091697858
0.003091697808
0.003091697761
0.003091697576
0.003091696853
0.003091697898
0.003091698523
0.003091698248
0.003091697152
0.003091698118
0.00309169824
0.00309169861
0.00309169864
0.003091697757
0.003091697723
0.003091698241
0.00309169666
0.003091696872
0.003091697591
0.003091698616
0.00309169902
0.003091698488
0.00309169791
0.003091696808
0.003091698563
0.003091698214
0.003091698238
0.003091698875
0.003091698509
0.00309169735
0.003091698313
0.003091698738
0.003091697769
0.003091697387
0.003091697848
0.003091697545
0.003091697248
0.003091698154
0.003091695852
0.003091698084
0.00309169704
0.003091698115
0.003091697516
0.003091697344
0.003091697624
0.003091698173
0.003091698822
0.003091698394
0.0030916973
0.003091696919
0.003091696858
0.003091696063
0.003091697922
0.003091697901
0.003091695801
0.003091696379
0.003091697364
0.003091695134
0.00309169775
0.003091698516
0.003091696001
0.003091697904
0.003091697604
0.003091695718
0.003091697687
0.003091698067
0.003091697329
0.003091697735
0.003091697673
0.003091697598
0.003091697699
0.003091695834
0.003091698278
0.00309169771
0.00309169796
0.003091698098
0.003091697635
0.003091697655
0.003091696809
0.003091697559
0.003091697445
0.003091696455
0.003091697219
0.003091696565
0.00309169792
0.003091697416
0.003091698464
0.003091698673
0.00309169704
0.003091697562
0.003091697345
0.003091698068
0.003091697196
0.003091698139
0.003091697434
0.003091697525
0.003091697619
0.003091697517
0.003091697968
0.003091697625
0.003091695077
0.003091696769
0.003091698307
0.003091698248
0.003091697697
0.003091697972
0.003091696335
0.003091698321
0.003091697776
0.00309169931
0.003091697772
0.003091697494
0.003091697476
0.003091698169
0.003091696181
0.003091698309
0.003091698793
0.003091697271
0.003091697442
0.003091697996
0.00309169789
0.003091697158
0.003091697187
0.003091697398
0.00309169704
0.003091696574
0.003091698763
0.003091697318
0.003091698424
0.003091697748
0.0030916986
0.003091698579
0.003091697569
0.003091697375
0.003091698152
0.003091697441
0.00309169753
0.003091696571
0.003091698453
0.0030916981
0.003091697617
0.003091697596
0.003091697838
0.003091697343
0.003091697901
0.003091697803
0.003091698756
0.003091697542
0.003091697626
0.003091698083
0.003091698397
0.003091696243
0.003091698108
0.003091697907
0.003091696868
0.003091695703
0.003091696627
0.003091697794
0.003091697065
0.003091697579
0.003091696944
0.00309169838
0.003091697781
0.003091696352
0.00309169813
0.003091696563
0.003091697315
0.003091697186
0.003091698812
0.003091697557
0.003091698188
0.003091697787
0.003091697613
0.003091697673
0.003091696636
0.003091697844
0.003091698044
0.003091697673
0.003091696546
0.00309169784
0.003091697966
0.003091698161
0.00309169744
0.003091694105
0.003091696985
0.003091696567
0.003091697664
0.003091697906
0.003091698031
0.003091698516
0.003091696866
0.003091698073
0.003091697525
0.003091699264
0.00309169915
0.003091697714
0.003091698111
0.003091698898
0.003091698471
0.003091697447
0.003091698685
0.003091697154
0.003091698437
0.003091697779
0.003091697142
0.00309169748
0.00309169885
0.003091698468
0.003091697246
0.003091697853
0.003091698391
0.003091698738
0.003091698211
0.003091698799
0.003091698519
0.003091698717
0.003091698174
0.003091698792
0.003091698423
0.003091698549
0.003091698244
0.003091698918
0.003091695648
0.003091697771
0.003091698807
0.003091698586
0.003091698564
0.003091696707
0.003091698547
0.003091698674
0.003091698684
0.00309169876
0.003091698505
0.003091698315
0.003091697821
0.003091698663
0.003091697183
0.003091698425
0.003091698522
0.003091695638
0.003091698862
0.003091697871
0.003091697517
0.003091698155
0.003091697086
0.003091697866
0.003091696153
0.003091697938
0.003091697634
0.003091697142
0.003091696498
0.003091696968
0.003091697307
0.003091696786
0.003091697435
0.00309169706
0.00309169731
0.003091695258
0.003091698315
0.003091696849
0.00309169674
0.003091697318
0.003091697693
0.003091698538
0.003091697639
0.003091697114
0.003091697162
0.003091697273
0.00309169761
0.003091697107
0.003091696411
0.003091697044
0.003091695344
0.00309169865
0.003091697741
0.003091698006
0.003091697226
0.003091698395
0.003091697856
0.003091696584
0.003091697773
0.003091696759
0.003091697051
0.00309169783
0.003091698212
0.00309169763
0.003091697663
0.003091697065
0.003091697787
0.003091696214
0.003091698729
0.003091697243
0.00309169697
0.003091697655
0.00309169814
0.003091697092
0.003091697813
0.003091696476
0.003091698423
0.003091697066
0.003091698561
0.003091695644
0.003091697155
0.003091697344
0.003091697983
0.003091697995
0.003091698309
0.00309169605
0.003091698376
0.003091698212
0.003091698004
0.003091698229
0.003091697817
0.003091697115
0.003091692714
0.003091695527
0.003091696048
0.003091697394
0.003091697398
0.003091697619
0.003091697183
0.003091696875
0.003091698084
0.003091697668
0.003091697637
0.003091698038
0.003091697205
0.003091697746
0.003091697661
0.003091697209
0.003091699362
0.003091697141
0.003091697437
0.00309169669
0.003091698796
0.003091698715
0.003091696752
0.00309169675
0.003091697149
0.003091697444
0.003091697469
0.003091697433
0.00309169698
0.003091698555
0.003091696821
0.003091698782
0.003091698024
0.003091698576
0.003091696752
0.00309169538
0.003091696626
0.003091697146
0.003091697826
0.003091697621
0.003091697378
0.003091698332
0.003091697692
0.003091697471
0.003091695344
0.003091696638
0.003091697491
0.003091698789
0.003091698409
0.003091695731
0.003091698273
0.003091698373
0.003091696924
0.003091698526
0.003091697208
0.003091697457
0.003091697272
0.003091697577
0.003091697784
0.003091698362
0.003091697964
0.003091696382
0.003091696867
0.003091698042
0.003091698486
0.003091698201
0.003091697421
0.003091697363
0.003091695855
0.003091698423
0.003091697966
0.003091698463
0.003091698119
0.003091698464
0.003091697578
0.003091696375
0.003091697335
0.003091698631
0.003091698211
0.00309169895
0.003091697803
0.0030916985
0.003091697649
0.003091698354
0.003091698979
0.003091696604
0.003091697951
0.003091696927
0.003091697474
0.003091698375
0.003091698414
0.003091698718
0.003091697582
0.003091698524
0.003091696488
0.003091696976
0.003091697585
0.00309169814
0.00309169712
0.003091697713
0.003091697886
0.003091696697
0.003091698293
0.003091698526
0.003091697482
0.003091697886
0.003091697338
0.00309169747
0.003091697123
0.003091698494
0.003091698438
0.003091697635
0.003091696976
0.00309169802
0.003091696854
0.003091698262
0.0030916966
0.003091697868
0.003091698082
0.003091697955
0.003091696536
0.003091698132
0.003091697312
0.003091697784
0.003091697138
0.003091696888
0.003091697385
0.003091696651
0.003091696703
0.003091695638
0.003091698592
0.003091698031
0.00309169717
0.003091697998
0.003091698151
0.003091697503
0.003091697481
0.003091697891
0.00309169705
0.003091697554
0.003091698357
0.003091696388
0.003091697466
0.003091696433
0.003091698121
0.003091698252
0.0030916968
0.003091697134
0.003091697053
0.003091698108
0.003091697254
0.003091698007
0.003091697786
0.00309169744
0.00309169823
0.00309169904
0.003091695886
0.003091696745
0.003091699043
0.003091696579
0.003091696451
0.003091697522
0.003091697743
0.003091697616
0.003091698397
0.003091697969
0.003091697627
0.003091697952
0.003091697769
0.003091697057
0.003091697487
0.003091697346
0.003091697884
0.003091696551
0.003091697543
0.003091697959
0.00309169676
0.003091696573
0.003091696132
0.003091696098
0.00309169815
0.00309169795
0.003091696721
0.00309169656
0.003091697777
0.003091695339
0.003091696545
0.003091695467
0.003091697935
0.003091697499
0.003091697257
0.003091697374
0.003091697009
0.003091698167
0.003091697152
0.00309169813
0.003091698271
0.003091697846
0.003091697877
0.003091698578
0.003091697512
0.003091698164
0.003091697841
0.00309169738
0.003091698272
0.003091697177
0.003091698089
0.003091697396
0.003091697905
0.003091697462
0.003091696991
0.003091697946
0.00309169757
0.003091698505
0.003091699087
0.003091698306
0.003091697537
0.003091699132
0.00309169776
0.003091697836
0.003091697754
0.003091695439
0.003091697312
0.003091695645
0.003091696563
0.003091698645
0.003091697005
0.003091697683
0.003091696807
0.003091698658
0.003091697759
0.003091697624
0.00309169703
0.00309169682
0.003091698151
0.003091697555
0.003091638523
0.003091696546
0.003091698096
0.003091694946
0.003091696626
0.003091697081
0.003091696938
0.003091696824
0.00309169868
0.00309169707
0.003091697806
0.003091698247
0.003091697176
0.003091697769
0.003091698322
0.003091696946
0.003091696561
0.003091698202
0.003091697257
0.003091698058
0.003091697496
0.00309169727
0.003091697068
0.003091697617
0.003091697699
0.003091698623
0.003091698545
0.003091697097
0.003091697161
0.00309169654
0.00309169857
0.003091699115
0.003091698007
0.003091698328
0.003091697153
0.003091698835
0.003091698155
0.003091697658
0.003091697702
0.003091698526
0.003091698035
0.003091697457
0.003091698219
0.003091697711
0.003091698763
0.003091699033
0.003091697523
0.003091698286
0.003091697485
0.003091697898
0.003091698091
0.003091698689
0.003091697421
0.00309169755
0.003091696918
0.003091698236
0.00309169749
0.003091697737
0.003091698121
0.00309169764
0.003091697841
0.003091697533
0.003091698828
0.003091698614
0.003091697865
0.003091698308
0.003091697646
0.003091697696
0.003091696816
0.003091698323
0.003091697712
0.003091698376
0.003091698472
0.003091698613
0.003091698101
0.003091697186
0.003091698703
0.003091697999
0.003091697292
0.003091698587
0.003091696311
0.003091697539
0.003091696687
0.003091698817
0.003091697878
0.003091698231
0.003091697787
0.003091697392
0.003091688785
0.003091697704
0.003091697671
0.003091697712
0.003091696891
0.003091698387
0.003091698082
0.003091696825
0.003091697804
0.00309169718
0.003091698367
0.003091696994
0.003091697143
0.003091695708
0.003091697377
0.003091696445
0.003091697904
0.003091697294
0.003091697301
0.003091697998
0.0030916989
0.003091697863
0.003091696797
0.003091698272
0.003091697004
0.003091697763
0.003091697536
0.003091698707
0.003091697096
0.003091698524
0.00309169695
0.003091697251
0.003091696353
0.003091696922
0.003091698749
0.00309169849
0.003091696712
0.003091697663
0.003091697213
0.003091697232
0.003091697307
0.003091695108
0.003091698294
0.003091697062
0.003091697252
0.003091698203
0.003091697091
0.003091697035
0.003091698192
0.0030916982
0.003091696888
0.00309169729
0.003091694896
0.00309169686
0.003091697607
0.003091698458
0.003091696668
0.003091698009
0.003091696492
0.003091698439
0.003091697196
0.003091697106
0.003091697031
0.003091697341
0.003091697301
0.003091697928
0.003091697466
0.003091696461
0.00309169676
0.003091698105
0.003091696582
0.003091696478
0.003091698351
0.003091698228
0.003091697573
0.003091698295
0.003091698284
0.003091698413
0.003091697534
0.003091698052
0.003091697153
0.003091698321
0.003091697811
0.003091697116
0.003091698071
0.003091698788
0.003091697798
0.003091697515
0.003091697964
0.003091698127
0.003091697109
0.003091696588
0.003091697546
0.00309169772
0.003091697426
0.003091696801
0.003091697857
0.00309169824
0.003091698355
0.003091697657
0.003091698329
0.003091695903
0.003091696981
0.003091698056
0.003091697334
0.003091697628
0.0030916961
0.003091697662
0.003091697846
0.003091698041
0.003091697167
0.003091698312
0.003091698046
0.00309169799
0.0030916987
0.003091698298
0.00309169804
0.003091698366
0.003091697263
0.003091696493
0.003091698406
0.00309169637
0.003091697759
0.003091696611
0.003091697163
0.003091697422
0.003091698289
0.00309169613
0.003091696955
0.003091697245
0.003091696244
0.003091698096
0.003091697188
0.003091696719
0.003091697186
0.003091696251
0.003091698025
0.003091698091
0.00309169377
0.003091697668
0.003091697358
0.003091696886
0.003090494221
0.003090729206
0.003090567037
0.003089620297
0.003090289889
0.003090905409
0.003091028814
0.003090817888
0.003090862204
0.003090918163
0.003090785017
0.003091036201
0.003091069388
0.003091421581
0.003091022632
0.003090923215
0.003091060362
0.003090884927
0.003089080376
0.00308413908
0.003084488738
0.003075022017
0.003083513343
0.003075794273
0.003090665576
0.00308100874
0.003086235989
0.003090144574
0.003084390653
0.00308605106
0.003074127923
0.003085111943
0.003089541454
0.003085835414
0.003091488007
0.003091697341
0.003091697284
0.003091696605
0.003091696891
0.003091696656
0.003091698509
0.003091696521
0.003091698024
0.003091655126
0.003091698015
0.00309169636
0.003091697206
0.003091696513
0.003091695065
0.003091696379
0.003091696211
0.00309169727
0.003091697075
0.003091696629
0.003091697247
0.003091698121
0.003091697627
0.003091696996
0.003091697545
0.003091697988
0.003091696845
0.00309169716
0.003090758165
0.003090883697
0.003091175816
0.003090792395
0.003090316487
0.003090434802
0.003091229646
0.003090368791
0.00309046897
0.003091201064
0.003090642352
0.00309066826
0.00308957082
0.003087306164
0.003082582706
0.00307504035
0.003079310313
0.003088653865
0.003075235306
0.003073970426
0.003072045758
0.003078260995
0.002545460397
0.003080593549
0.003087599592
0.003091696916
0.003091694833
0.003091695926
0.003091695652
0.003091697645
0.003091696212
0.003091698336
0.003091697701
0.003091698256
0.003091698313
0.003091695568
0.003091697633
0.003091696125
0.003091696738
0.003091695426
0.003091697113
0.003091697756
0.003091697366
0.003091127714
0.003091696244
0.00309169863
0.003091695699
0.003091697519
0.003091694206
0.00309169807
0.003091694989
0.003090627367
0.003090814723
0.003089648293
0.003090629118
0.003090633241
0.003091312468
0.003090718944
0.003091006159
0.00309139052
0.003090979014
0.003087128133
0.003076758242
0.003076451374
0.003079446038
0.003079888976
0.003091199295
0.003088621947
0.003090103537
0.003081964696
0.003088371986
0.003088656653
0.003089548146
0.003083013553
0.003089195201
0.002756984291
0.002454342754
0.002740789235
0.002583964675
0.002704977249
0.002476893448
0.003071339869
0.002569835736
0.002991266043
0.002641651393
0.00308953692
0.003091697272
0.003091698079
0.003091697471
0.003091698067
0.00309169687
0.003091698284
0.003091696776
0.003091697637
0.003091697496
0.003091697682
0.003091697096
0.003091698222
0.003091697105
0.003091697867
0.003091697772
0.003091698552
0.003091697429
0.003091692732
0.00309169738
0.003091697799
0.003091698011
0.003091697956
0.003091696855
0.003091697991
0.003091698081
0.003091698373
0.003091696996
0.003091697843
0.0030916963
0.003091697423
0.00309169665
0.003091697682
0.003091697671
0.003091697321
0.003091697703
0.00309169519
0.003091696134
0.003091697407
0.003089657964
0.003090911977
0.003091085035
0.003091087712
0.003089819286
0.003089635204
0.003090931477
0.003091068411
0.003091300588
0.003091053024
0.003087603302
0.003090601828
0.00309060798
0.003090498512
0.003090348849
0.003090754221
0.00309058957
0.003090922806
0.003090551282
0.003090683993
0.003090932344
0.003089239665
0.003075415944
0.003080794093
0.003074780501
0.0030807813
0.003090362216
0.003087698672
0.003077151843
0.00308327539
0.003078738934
0.003090979963
0.003090682678
0.003077730375
0.003078492747
0.003077306485
0.003075817155
0.003081044123
0.003075166788
0.003091698328
0.003091657141
0.003091697881
0.003091698235
0.003091698269
0.003091696655
0.003091527837
0.003091698003
0.003091695759
0.003091695668
0.003091696779
0.00309169466
0.003091530647
0.003091697514
0.003091696897
0.003091697118
0.003091696544
0.003091697279
0.003091697018
0.003091697873
0.00309169677
0.003091695855
0.003091696371
0.003091696427
0.003091696538
0.003090617652
0.003091320412
0.003091195756
0.003091225578
0.003091219554
0.003091305326
0.003091196472
0.003090677215
0.003091022959
0.003091087781
0.00309084373
0.003079520117
0.003083007438
0.003081805022
0.003081121241
0.003087992087
0.003079925383
0.003088010355
0.003085158765
0.003091000424
0.003086561402
0.003091137104
0.003090313839
0.002465394747
0.003085356401
0.003091698408
0.003091696754
0.003091695145
0.003091697953
0.003091695959
0.003091697213
0.00309169688
0.00309169629
0.003091695707
0.003091696277
0.003091691698
0.003091697853
0.003091698566
0.00309169845
0.003091697911
0.003091696943
0.003091697804
0.003091695729
0.003091696841
0.003091696066
0.003091697317
0.003091695796
0.003091698216
0.003091695603
0.003091696556
0.003090742758
0.003090840906
0.003091299016
0.003090789452
0.003090795865
0.003091310088
0.003090725291
0.003090829947
0.003090785967
0.003091149542
0.003090998668
0.003090604617
0.003075702351
0.003081688354
0.003082354435
0.003086718205
0.003083308599
0.003084110124
0.00309009138
0.003090108846
0.003085654023
0.003075512729
0.003081794362
0.003077591016
0.003089959166
0.003075709049
0.002461192035
0.002515288372
0.003091697068
0.003091697616
0.003091697336
0.003091697738
0.003091697227
0.003091697729
0.003091695607
0.003091695772
0.003091696836
0.003091698334
0.003091697375
0.00309169757
0.003091698119
0.003091698333
0.003091696907
0.003091697341
0.003091697773
0.003091696099
0.003091690633
0.003091696985
0.003091696972
0.003091694978
0.003091698004
0.003091697964
0.003091697989
0.003091697617
0.003091696912
0.003091696683
0.003091697284
0.003091696874
0.003091696754
0.003091698205
0.003091697196
0.00309012694
0.003090693308
0.003090213998
0.003090764889
0.00309026455
0.00309022764
0.003090886503
0.003090956655
0.00309078743
0.003084828961
0.003090773937
0.003089814158
0.003089911732
0.003090124599
0.003090158498
0.003091210842
0.003089723903
0.003089707396
0.00309025656
0.00309115451
0.003085555211
0.003076579087
0.003089324622
0.003090513326
0.002571013959
0.003079609563
0.00307876088
0.003088989934
0.003077139899
0.003085111769
0.003087570196
0.003075557997
0.003089377666
0.003079145022
0.003082269967
0.003089474094
0.003091696332
0.003091696845
0.003091696692
0.003091697892
0.003091696132
0.003091698288
0.003091551719
0.003091696258
0.003091696228
0.003091477909
0.003091698169
0.003091694952
0.003091697068
0.003091694546
0.003090674568
0.003091695898
0.003091696454
0.003091696886
0.003091695919
0.003091698106
0.003091693186
0.003091697459
0.003091697096
0.003091695378
0.003091697664
0.003091695415
0.003091695426
0.003091695353
0.00309005515
0.003091196234
0.003090015145
0.003090143117
0.003090971242
0.003090993544
0.003090958362
0.003089786838
0.003090871578
0.003090742834
0.002569067182
0.003084644817
0.003079688384
0.002782268078
0.00309092119
0.003075704183
0.003090481437
0.003086749575
0.002865881706
0.003084629939
0.003089992438
0.003074530637
0.003076556352
0.003091697509
0.003091575362
0.003091696056
0.003091698056
0.003091696055
0.003091697581
0.00309169649
0.00309169817
0.003091695006
0.00309169667
0.003091695668
0.003091696908
0.003091695671
0.003091696664
0.003091696229
0.00309169692
0.003091696347
0.003091696418
0.003091697109
0.003091697055
0.003091695203
0.00309169526
0.003091697189
0.00309169604
0.003091696638
0.003091697413
0.003091695638
0.003091697008
0.003090303284
0.00309039344
0.003090860475
0.003090646441
0.003089106464
0.00308907348
0.003090632847
0.003088659216
0.003088898048
0.00309135421
0.003091021481
0.003090238187
0.003091653662
0.003090993597
0.003091104175
0.003084862573
0.003089930959
0.003071908781
0.003089049663
0.00308040616
0.003078041623
0.003087068218
0.003088754654
0.00307992137
0.003090860229
0.003081645104
0.002804165592
0.00300368442
0.002527668113
0.002681489527
0.002711600761
0.002943413527
0.002885585458
0.003067751719
0.002945347922
0.002624431447
0.002896419224
0.00306327529
0.002536163946
0.003091695206
0.003091696651
0.003091696739
0.003091696093
0.003091697069
0.003091697768
0.003091698137
0.003091698499
0.003091697622
0.003091697157
0.003091697129
0.003091698202
0.003091698513
0.003091698246
0.003091697936
0.00309169813
0.00309169715
0.0030916982
0.003091697919
0.003091698396
0.003091696815
0.003091695183
0.003091697981
0.003091696381
0.003091697733
0.003091698016
0.003091697042
0.003091694664
0.003091698319
0.003091697344
0.003091696147
0.003091696955
0.00309169708
0.003091697676
0.003091698032
0.003091697167
0.003091697863
0.003091199418
0.003091055673
0.003090623139
0.003090536991
0.003091219372
0.003091043849
0.003087143074
0.003091225463
0.003090148036
0.003090818124
0.003090662657
0.003090632276
0.003087641508
0.003091295217
0.003089984774
0.003091005671
0.003089543982
0.003090000906
0.002969984762
0.003075494413
0.003090266568
0.003082198304
0.003089244583
0.003085326807
0.003075545703
0.003090827712
0.003090410957
0.003080420056
0.003080029235
0.003076220744
0.003078577575
0.003088241081
0.003082906316
0.003091160987
0.003073668237
0.003079846553
0.003084852659
0.003091696839
0.003091697019
0.00309169717
0.003091698034
0.003091695856
0.003091696072
0.003091697033
0.003091696369
0.00309167566
0.003091696952
0.003091695448
0.003091697236
0.003091696034
0.003091697909
0.003091697417
0.003091697293
0.003091695059
0.003091697239
0.003091694018
0.003091696315
0.003091697462
0.00309169641
0.003091697864
0.0030916955
0.003090234943
0.003090512024
0.003090919022
0.00309018251
0.003090296936
0.003090303139
0.0030897977
0.003090883588
0.003091037885
0.003089879381
0.003090125507
0.003090347318
0.003090427651
0.003090164798
0.003090399135
0.003089902429
0.003076439592
0.003072431947
0.003081963494
0.003084597009
0.003086957742
0.003085717851
0.003088901484
0.003074933084
0.003076077623
0.003083141073
0.003089257061
0.002581476762
0.003091698348
0.003091697235
0.00309169774
0.003091698055
0.003091696948
0.003091698508
0.003091697002
0.003091413221
0.003091698088
0.003091696554
0.003091697814
0.003091698411
0.003091696497
0.00309169731
0.003091696021
0.003091697908
0.003091697943
0.003091696692
0.003091696442
0.003091697311
0.003091697664
0.003091697163
0.003091697732
0.003091696802
0.003091696452
0.003091697148
0.00309141949
0.00309005502
0.003091439003
0.003090781752
0.003091015272
0.003091215907
0.003090977487
0.003091391376
0.003090677189
0.003091304979
0.003090563331
0.003090706323
0.003091351461
0.003086779372
0.00308981853
0.00307954475
0.003087127593
0.003081520707
0.00308839779
0.003089262081
0.003089846617
0.0030779668
0.003074168633
0.003086599747
0.003085116697
0.002476219619
0.002611328411
0.002927986046
0.002990770917
0.002707153894
0.003070054972
0.002432496079
0.002432836973
0.002412538134
0.002463519276
0.002404458495
0.002417320641
0.002415772621
0.002415597968
0.002413474842
0.002431145892
0.002420208498
0.002411730511
0.002433635292
0.002433650541
0.002412223394
0.002409692844
0.002565094011
0.002428755456
0.002429553095
0.002576574253
0.002862662694
0.002431667917
0.002406558233
0.002415965921
0.002581923303
0.002860974779
0.002410879819
0.002401625381
0.002402751247
0.002417347576
0.00240936016
0.002411203567
0.002400460092
0.002401703442
0.002412279011
0.002411596641
0.002397173206
0.002399358568
0.002407195122
0.002398755625
0.002400175146
0.002407479824
0.002410679248
0.002402125116
0.002401943606
0.002397188002
0.002409492123
0.002402302958
0.002402772272
0.002395811453
0.002399391552
0.002407021432
0.002410930705
0.00242992296
0.002428624924
0.002432884165
0.002421300654
0.002411740809
0.002428196979
0.002435425282
0.002417801592
0.002432582177
0.002425982964
0.002414845759
0.002432271679
0.002432041234
0.002413608911
0.002414512618
0.002409870677
0.002409166618
0.002412517228
0.002413237971
0.002410722426
0.002411421072
0.002421311509
0.002406911137
0.002412999581
0.002413652942
0.002409918835
0.002407541726
0.002410544045
0.002405765049
0.002414137299
0.002411615677
0.002413475828
0.002409119957
0.002413895575
0.002430426171
0.002418591553
0.002430755695
0.002432075714
0.002419986633
0.002416049191
0.002420557928
0.002432039784
0.00243323886
0.002435310326
0.002418756462
0.002422699671
0.002416547895
0.002436473662
0.002424565571
0.00243265319
0.002432735063
0.002430096345
0.002407905892
0.002411021425
0.002411936117
0.002411124286
0.00242162395
0.002412027947
0.002410626197
0.002412775082
0.002412443552
0.002404970998
0.002421059387
0.002416047648
0.002415655492
0.002413307793
0.002409170034
0.002437450138
0.002414489939
0.002430437091
0.002431296061
0.002532261925
0.002410147006
0.002431073903
0.002413251007
0.002426460368
0.002429917049
0.002408736638
0.002426771698
0.002414527145
0.002434713936
0.002414288956
0.00245885956
0.002459815698
0.002431222017
0.002426176694
0.002433163346
0.002432791937
0.002885154547
0.002429527726
0.002431350344
0.002414750006
0.002431362499
0.00241341303
0.002413757609
0.002411436768
0.002415388136
0.002403585382
0.002404907797
0.00241330225
0.00241139043
0.002403185783
0.002409653212
0.002411455463
0.002404770659
0.002404640286
0.002410908127
0.002405030164
0.002410093965
0.002408610414
0.00240612707
0.002412405991
0.002428841765
0.002533862343
0.002421194888
0.002426249703
0.002457242774
0.002436315479
0.002410891351
0.002427138732
0.002429156242
0.00241202861
0.002431218567
0.002483504676
0.002632238682
0.002406781529
0.002431281429
0.002537045183
0.002411553959
0.002735033552
0.002432584836
0.002427895547
0.002422827399
0.002417655553
0.00243453373
0.002424045966
0.002408828602
0.002420341815
0.00241450355
0.002414347626
0.002409253136
0.002411630453
0.002411106672
0.002409235294
0.002414418537
0.002418807174
0.002407076175
0.002407558248
0.002410166293
0.002414127917
0.002424766234
0.002412841051
0.002425126775
0.002429876048
0.002431043721
0.002413911157
0.002417216723
0.0024309556
0.002429025117
0.002417162576
0.002431205068
0.002431109398
0.002419991491
0.002415189549
0.002427771559
0.002419621643
0.002413571084
0.002409332951
0.002405519813
0.00241629155
0.002407197625
0.002408962451
0.002423048629
0.002413934773
0.002410876538
0.002407137116
0.002412098996
0.002409223333
0.002412976669
0.002420673602
0.002405279299
0.002409915735
0.002406208625
0.002406316683
0.002422014844
0.002425081803
0.002421110433
0.002551997903
0.002436910496
0.002420489816
0.002419578198
0.002435861178
0.002426103178
0.002414237996
0.002433436279
0.002432477722
0.002438015447
0.002438858055
0.002425809211
0.002428442032
0.002428116015
0.002464738448
0.002432832698
0.002412586867
0.002433376322
0.00241405493
0.002409111044
0.002433967843
0.002414494125
0.002416720402
0.002406248004
0.002426052933
0.002412398511
0.002431194675
0.00245999403
0.002559869521
0.002408657865
0.002417403003
0.002410903384
0.00241588582
0.002416020217
0.002409465457
0.002420824012
0.002420397734
0.002417854958
0.00240643702
0.002408910709
0.002408495242
0.002404253806
0.002408926603
0.002408724369
0.002410624914
0.002404987132
0.002407796619
0.002410091733
0.002406650436
0.002411670623
0.002409746116
0.002407578802
0.002406029175
0.00240606822
0.00241300945
0.002412671532
0.002405222428
0.002402461921
0.002408975409
0.002404865572
0.00242732717
0.002414692649
0.002420005571
0.002411770035
0.002429754151
0.002425533295
0.002426551168
0.0024268253
0.002422270411
0.002507339894
0.002420134867
0.002427513148
0.002416734901
0.002433536936
0.002423597211
0.002407376354
0.002413251944
0.00241172948
0.002412471757
0.002404345173
0.002408721814
0.002404906349
0.002409827415
0.002411087101
0.002406356293
0.002404876079
0.002408754668
0.00241505903
0.00241829651
0.002414402422
0.002415878422
0.002413576183
0.00241888673
0.002419994773
0.002446690807
0.002447001856
0.002412827319
0.002432754567
0.002428906193
0.002431934525
0.002420779248
0.002433710217
0.00243689504
0.00241779935
0.002427079888
0.002434824273
0.002428133167
0.002479741494
0.002412609926
0.002421435872
0.002702847218
0.002420576393
0.002416676102
0.002411320983
0.002403242097
0.002408294403
0.002408535185
0.002410608593
0.00241101074
0.002415620081
0.002424250817
0.002413102927
0.002415767447
0.002411589937
0.002407358256
0.002410329722
0.002407249063
0.002409479098
0.002409525857
0.002410242962
0.002416056986
0.0024094191
0.002410566398
0.002407358126
0.002431353466
0.002411879997
0.002431575305
0.002415004837
0.002428420627
0.002429986212
0.002412139107
0.002414397214
0.002412630781
0.002411269476
0.002426075975
0.002430930284
0.002409930327
0.002458670294
0.002413210813
0.00243245035
0.00242662504
0.002412229735
0.002415315592
0.002416467892
0.00243554115
0.002430901433
0.002410809945
0.002427240191
0.002436135664
0.002418834123
0.002419479839
0.002435100233
0.002437204043
0.002407246895
0.002410964106
0.002407717248
0.002409734135
0.002409752343
0.002405841975
0.002409735518
0.002409107109
0.002406951349
0.002407295343
0.002406349411
0.002410501672
0.002413651841
0.002405885494
0.002414764105
0.002414436021
0.002404882276
0.002408237775
0.002414670937
0.002416527736
0.002430148746
0.002433414607
0.002416452974
0.002420156783
0.002463731337
0.002417931496
0.002436254179
0.002410227807
0.002433972418
0.002417507729
0.002458590592
0.002433542301
0.002417027049
0.00242395119
0.002435542962
0.002434182438
0.002433165809
0.002418269118
0.002426306061
0.002414508817
0.002408889906
0.002413057937
0.002418691439
0.002418148704
0.00241286889
0.002417509666
0.002415464972
0.002413309424
0.002413948377
0.002413159726
0.002416539139
0.00241756806
0.002406328057
0.002426091872
0.002475386492
0.002783525966
0.002413891737
0.002430102091
0.002493023857
0.002411046072
0.002424826451
0.002429884767