/*--------------------------------*- C++ -*----------------------------------*\
  =========                 |
  \\      /  F ield         | OpenFOAM: The Open Source CFD Toolbox
   \\    /   O peration     | Website:  https://openfoam.org
    \\  /    A nd           | Version:  7
     \\/     M anipulation  |
\*---------------------------------------------------------------------------*/
FoamFile
{
    version     2.0;
    format      ascii;
    class       scalarField;
    location    "2/lagrangian/coalCloud1";
    object      rb3;
}
// * * * * * * * * * * * * * * * * * * * * * * * * * * * * * * * * * * * * * //


2000
(
0.003092698951
0.003092697595
0.003092697029
0.003092697332
0.003092697389
0.003092697492
0.003092697278
0.003092698342
0.003092697884
0.003092698432
0.003092697989
0.003092698554
0.003092697149
0.00309269816
0.003092697129
0.003092696912
0.003092694463
0.003092697965
0.003092698198
0.003092697381
0.003092698432
0.003092697342
0.003092697522
0.003092696112
0.003092698868
0.00309269767
0.003092697562
0.003092698465
0.00309269816
0.003092697859
0.003092697809
0.003092697762
0.003092697578
0.003092696856
0.003092697899
0.003092698524
0.003092698249
0.003092697154
0.003092698118
0.003092698241
0.003092698611
0.003092698641
0.003092697759
0.003092697724
0.003092698242
0.003092696662
0.003092696874
0.003092697591
0.003092698617
0.003092699021
0.003092698489
0.003092697912
0.003092696809
0.003092698565
0.003092698215
0.003092698239
0.003092698875
0.003092698509
0.003092697352
0.003092698314
0.003092698739
0.003092697771
0.003092697389
0.00309269785
0.003092697546
0.003092697249
0.003092698155
0.003092695855
0.003092698085
0.003092697041
0.003092698115
0.003092697517
0.003092697345
0.003092697626
0.003092698174
0.003092698824
0.003092698395
0.003092697301
0.003092696921
0.003092696859
0.003092696066
0.003092697924
0.003092697903
0.003092695803
0.00309269638
0.003092697366
0.003092695136
0.003092697751
0.003092698517
0.003092696003
0.003092697905
0.003092697605
0.00309269572
0.003092697689
0.003092698068
0.003092697331
0.003092697736
0.003092697674
0.003092697598
0.0030926977
0.003092695837
0.003092698279
0.003092697712
0.003092697961
0.003092698099
0.003092697637
0.003092697656
0.003092696811
0.003092697561
0.003092697446
0.003092696457
0.003092697221
0.003092696566
0.003092697921
0.003092697418
0.003092698464
0.003092698674
0.003092697042
0.003092697563
0.003092697346
0.003092698069
0.003092697197
0.003092698139
0.003092697435
0.003092697527
0.003092697621
0.00309269752
0.003092697969
0.003092697626
0.00309269508
0.00309269677
0.003092698308
0.003092698248
0.003092697698
0.003092697974
0.003092696337
0.003092698322
0.003092697778
0.00309269931
0.003092697773
0.003092697495
0.003092697478
0.00309269817
0.003092696184
0.00309269831
0.003092698794
0.003092697272
0.003092697444
0.003092697996
0.003092697892
0.003092697158
0.003092697189
0.003092697398
0.003092697041
0.003092696575
0.003092698763
0.00309269732
0.003092698426
0.003092697748
0.003092698601
0.00309269858
0.003092697571
0.003092697376
0.003092698153
0.003092697442
0.003092697532
0.003092696573
0.003092698454
0.003092698102
0.003092697618
0.003092697597
0.003092697839
0.003092697344
0.003092697902
0.003092697804
0.003092698757
0.003092697543
0.003092697627
0.003092698084
0.003092698397
0.003092696244
0.003092698109
0.003092697907
0.00309269687
0.003092695706
0.003092696628
0.003092697796
0.003092697067
0.00309269758
0.003092696945
0.003092698381
0.003092697782
0.003092696353
0.00309269813
0.003092696564
0.003092697317
0.003092697188
0.003092698813
0.003092697558
0.003092698189
0.003092697788
0.003092697614
0.003092697674
0.003092696638
0.003092697844
0.003092698044
0.003092697674
0.003092696548
0.003092697841
0.003092697968
0.003092698161
0.003092697441
0.003092694107
0.003092696986
0.003092696568
0.003092697666
0.003092697907
0.003092698032
0.003092698517
0.003092696868
0.003092698074
0.003092697526
0.003092699265
0.003092699151
0.003092697715
0.003092698111
0.003092698899
0.003092698472
0.003092697449
0.003092698686
0.003092697156
0.003092698438
0.003092697779
0.003092697143
0.003092697481
0.003092698852
0.00309269847
0.003092697248
0.003092697855
0.003092698392
0.003092698739
0.003092698212
0.003092698801
0.00309269852
0.003092698718
0.003092698175
0.003092698794
0.003092698424
0.00309269855
0.003092698245
0.003092698919
0.00309269565
0.003092697771
0.003092698807
0.003092698588
0.003092698565
0.003092696709
0.003092698549
0.003092698675
0.003092698685
0.003092698761
0.003092698506
0.003092698316
0.003092697822
0.003092698664
0.003092697184
0.003092698426
0.003092698523
0.003092695641
0.003092698863
0.003092697872
0.003092697519
0.003092698156
0.003092697087
0.003092697867
0.003092696154
0.00309269794
0.003092697635
0.003092697144
0.0030926965
0.00309269697
0.003092697309
0.003092696788
0.003092697436
0.003092697061
0.003092697311
0.003092695261
0.003092698316
0.003092696851
0.003092696742
0.003092697319
0.003092697694
0.003092698539
0.00309269764
0.003092697116
0.003092697163
0.003092697274
0.003092697612
0.003092697109
0.003092696413
0.003092697045
0.003092695347
0.003092698651
0.003092697742
0.003092698007
0.003092697229
0.003092698396
0.003092697857
0.003092696586
0.003092697774
0.00309269676
0.003092697053
0.003092697831
0.003092698213
0.003092697631
0.003092697665
0.003092697066
0.003092697788
0.003092696215
0.00309269873
0.003092697245
0.003092696971
0.003092697656
0.003092698141
0.003092697093
0.003092697815
0.003092696477
0.003092698423
0.003092697068
0.003092698562
0.003092695647
0.003092697157
0.003092697346
0.003092697985
0.003092697997
0.00309269831
0.003092696053
0.003092698376
0.003092698213
0.003092698005
0.00309269823
0.003092697818
0.003092697116
0.003092692718
0.00309269553
0.003092696051
0.003092697395
0.003092697399
0.003092697621
0.003092697185
0.003092696876
0.003092698084
0.00309269767
0.003092697639
0.003092698039
0.003092697206
0.003092697747
0.003092697663
0.00309269721
0.003092699363
0.003092697143
0.003092697438
0.003092696691
0.003092698796
0.003092698716
0.003092696753
0.003092696752
0.003092697151
0.003092697445
0.003092697471
0.003092697435
0.003092696981
0.003092698556
0.003092696822
0.003092698783
0.003092698025
0.003092698576
0.003092696754
0.003092695383
0.003092696627
0.003092697148
0.003092697827
0.003092697623
0.00309269738
0.003092698333
0.003092697693
0.003092697472
0.003092695347
0.003092696641
0.003092697492
0.00309269879
0.003092698411
0.003092695734
0.003092698273
0.003092698374
0.003092696925
0.003092698527
0.003092697209
0.003092697459
0.003092697273
0.003092697578
0.003092697785
0.003092698364
0.003092697965
0.003092696384
0.003092696869
0.003092698043
0.003092698487
0.003092698202
0.003092697422
0.003092697364
0.003092695857
0.003092698425
0.003092697967
0.003092698463
0.00309269812
0.003092698466
0.00309269758
0.003092696378
0.003092697337
0.003092698631
0.003092698212
0.003092698951
0.003092697805
0.003092698501
0.003092697651
0.003092698355
0.00309269898
0.003092696605
0.003092697953
0.003092696929
0.003092697475
0.003092698376
0.003092698415
0.003092698718
0.003092697583
0.003092698524
0.003092696489
0.003092696978
0.003092697586
0.003092698141
0.003092697121
0.003092697714
0.003092697887
0.003092696698
0.003092698293
0.003092698526
0.003092697483
0.003092697888
0.003092697339
0.003092697472
0.003092697124
0.003092698495
0.003092698439
0.003092697636
0.003092696978
0.003092698021
0.003092696856
0.003092698263
0.003092696601
0.003092697868
0.003092698083
0.003092697956
0.003092696538
0.003092698133
0.003092697313
0.003092697784
0.003092697139
0.00309269689
0.003092697387
0.003092696652
0.003092696705
0.003092695641
0.003092698592
0.003092698032
0.003092697172
0.003092698
0.003092698152
0.003092697505
0.003092697483
0.003092697892
0.003092697051
0.003092697555
0.003092698357
0.00309269639
0.003092697467
0.003092696435
0.003092698123
0.003092698252
0.003092696802
0.003092697136
0.003092697055
0.003092698108
0.003092697255
0.003092698009
0.003092697787
0.003092697441
0.003092698231
0.00309269904
0.003092695889
0.003092696746
0.003092699044
0.00309269658
0.003092696453
0.003092697524
0.003092697744
0.003092697618
0.003092698397
0.00309269797
0.003092697628
0.003092697953
0.00309269777
0.003092697058
0.003092697488
0.003092697347
0.003092697885
0.003092696553
0.003092697544
0.003092697959
0.003092696762
0.003092696575
0.003092696135
0.003092696101
0.00309269815
0.003092697951
0.003092696723
0.003092696563
0.003092697778
0.003092695341
0.003092696548
0.00309269547
0.003092697936
0.003092697501
0.003092697259
0.003092697375
0.003092697011
0.003092698168
0.003092697153
0.003092698131
0.003092698272
0.003092697846
0.003092697879
0.003092698579
0.003092697514
0.003092698164
0.003092697841
0.003092697381
0.003092698273
0.003092697179
0.00309269809
0.003092697397
0.003092697906
0.003092697463
0.003092696992
0.003092697947
0.00309269757
0.003092698506
0.003092699088
0.003092698308
0.003092697539
0.003092699132
0.003092697761
0.003092697838
0.003092697755
0.003092695442
0.003092697313
0.003092695646
0.003092696565
0.003092698646
0.003092697007
0.003092697685
0.003092696808
0.003092698658
0.00309269776
0.003092697625
0.003092697032
0.003092696822
0.003092698152
0.003092697556
0.003092638557
0.003092696547
0.003092698097
0.003092694949
0.003092696627
0.003092697083
0.003092696939
0.003092696825
0.003092698681
0.003092697072
0.003092697808
0.003092698247
0.003092697177
0.003092697771
0.003092698323
0.003092696947
0.003092696563
0.003092698202
0.003092697258
0.003092698059
0.003092697497
0.003092697272
0.003092697069
0.003092697619
0.003092697701
0.003092698623
0.003092698545
0.003092697098
0.003092697163
0.003092696543
0.00309269857
0.003092699116
0.003092698008
0.003092698329
0.003092697154
0.003092698837
0.003092698156
0.003092697659
0.003092697703
0.003092698526
0.003092698035
0.003092697458
0.00309269822
0.003092697713
0.003092698763
0.003092699033
0.003092697525
0.003092698287
0.003092697486
0.003092697899
0.003092698092
0.00309269869
0.003092697423
0.003092697552
0.003092696919
0.003092698237
0.003092697492
0.003092697738
0.003092698122
0.003092697642
0.003092697843
0.003092697534
0.003092698829
0.003092698615
0.003092697866
0.003092698309
0.003092697648
0.003092697698
0.003092696818
0.003092698324
0.003092697713
0.003092698377
0.003092698473
0.003092698615
0.003092698102
0.003092697188
0.003092698703
0.003092698
0.003092697293
0.003092698588
0.003092696314
0.003092697541
0.003092696689
0.003092698818
0.003092697879
0.003092698231
0.003092697789
0.003092697393
0.003092688791
0.003092697705
0.003092697673
0.003092697712
0.003092696894
0.003092698388
0.003092698083
0.003092696826
0.003092697806
0.003092697181
0.003092698368
0.003092696996
0.003092697145
0.003092695709
0.003092697378
0.003092696447
0.003092697905
0.003092697296
0.003092697302
0.003092698
0.003092698901
0.003092697863
0.003092696798
0.003092698273
0.003092697006
0.003092697765
0.003092697537
0.003092698707
0.003092697098
0.003092698525
0.003092696952
0.003092697252
0.003092696356
0.003092696923
0.003092698751
0.00309269849
0.003092696714
0.003092697663
0.003092697214
0.003092697233
0.003092697309
0.003092695111
0.003092698295
0.003092697063
0.003092697254
0.003092698204
0.003092697093
0.003092697036
0.003092698193
0.0030926982
0.00309269689
0.003092697291
0.003092694899
0.003092696862
0.003092697609
0.003092698459
0.00309269667
0.003092698011
0.003092696494
0.00309269844
0.003092697198
0.003092697108
0.003092697034
0.003092697342
0.003092697303
0.003092697928
0.003092697468
0.003092696463
0.003092696761
0.003092698108
0.003092696584
0.00309269648
0.003092698353
0.00309269823
0.003092697575
0.003092698296
0.003092698285
0.003092698413
0.003092697535
0.003092698053
0.003092697154
0.003092698322
0.003092697812
0.003092697117
0.003092698072
0.003092698789
0.0030926978
0.003092697516
0.003092697965
0.003092698129
0.003092697112
0.00309269659
0.003092697547
0.003092697721
0.003092697427
0.003092696803
0.003092697857
0.003092698241
0.003092698356
0.003092697659
0.00309269833
0.003092695905
0.003092696983
0.003092698057
0.003092697335
0.003092697629
0.003092696102
0.003092697665
0.003092697847
0.003092698042
0.003092697169
0.003092698314
0.003092698046
0.003092697991
0.003092698701
0.003092698299
0.003092698042
0.003092698367
0.003092697264
0.003092696495
0.003092698406
0.003092696372
0.00309269776
0.003092696612
0.003092697166
0.003092697423
0.00309269829
0.003092696133
0.003092696957
0.003092697247
0.003092696245
0.003092698097
0.00309269719
0.003092696721
0.003092697187
0.003092696252
0.003092698025
0.003092698093
0.003092693772
0.00309269767
0.003092697359
0.003092696888
0.003091494882
0.003091729738
0.003091567658
0.003090621435
0.003091290662
0.003091905844
0.003092029181
0.003091818369
0.003091862662
0.00309191859
0.003091785517
0.003092036564
0.003092069733
0.003092421733
0.003092023003
0.003091923639
0.003092060714
0.003091885372
0.00309008181
0.003085143229
0.003085492693
0.0030760312
0.003084517835
0.003076803029
0.003091666142
0.003082014613
0.003087238983
0.003091145425
0.003085394662
0.003087054155
0.003075137602
0.003086115555
0.003090542636
0.003086838628
0.003092488124
0.003092697344
0.003092697285
0.003092696607
0.003092696893
0.003092696657
0.003092698511
0.003092696522
0.003092698026
0.003092655151
0.003092698016
0.003092696362
0.003092697208
0.003092696514
0.003092695068
0.003092696381
0.003092696212
0.003092697271
0.003092697078
0.003092696631
0.003092697248
0.003092698122
0.003092697628
0.003092696998
0.003092697547
0.00309269799
0.003092696847
0.00309269716
0.00309175868
0.003091884144
0.003092176103
0.003091792892
0.003091317245
0.003091435494
0.003092229904
0.003091369519
0.003091469643
0.003092201337
0.00309164293
0.003091668825
0.003090571987
0.003088308572
0.00308358771
0.003076049524
0.003080317123
0.003089655532
0.00307624437
0.003074980193
0.003073056594
0.003079268385
0.002546843727
0.00308159965
0.003088601837
0.003092696918
0.003092694836
0.003092695929
0.003092695654
0.003092697646
0.003092696214
0.003092698337
0.003092697703
0.003092698257
0.003092698313
0.003092695569
0.003092697635
0.003092696127
0.003092696739
0.003092695428
0.003092697113
0.003092697756
0.003092697368
0.003092128026
0.003092696246
0.003092698631
0.0030926957
0.003092697521
0.003092694209
0.003092698071
0.003092694991
0.003091627954
0.003091815207
0.003090649416
0.003091629703
0.003091633825
0.003092312679
0.00309171948
0.00309200654
0.003092390689
0.003091979408
0.003088130637
0.003077766463
0.003077459766
0.003080452773
0.003080895466
0.003092199568
0.003089623631
0.00309110441
0.003082970041
0.003089373808
0.003089658319
0.003090549322
0.00308401832
0.003090196571
0.002758196297
0.002455887529
0.002742013186
0.002585314181
0.00270622826
0.0024783802
0.003072351097
0.002571197504
0.002992323338
0.002642964827
0.003090538105
0.003092697273
0.00309269808
0.003092697472
0.003092698068
0.003092696872
0.003092698285
0.003092696779
0.003092697637
0.003092697498
0.003092697682
0.003092697098
0.003092698224
0.003092697107
0.003092697868
0.003092697774
0.003092698553
0.00309269743
0.003092692736
0.003092697381
0.003092697801
0.003092698012
0.003092697957
0.003092696858
0.003092697992
0.003092698082
0.003092698374
0.003092696997
0.003092697844
0.003092696301
0.003092697425
0.003092696653
0.003092697683
0.003092697672
0.003092697323
0.003092697704
0.003092695192
0.003092696137
0.003092697408
0.003090659082
0.003091912409
0.003092085372
0.003092088046
0.003090820314
0.003090636334
0.003091931896
0.003092068757
0.003092300807
0.003092053378
0.003088605547
0.003091602429
0.003091608578
0.00309149917
0.003091349588
0.003091754738
0.003091590178
0.00309192323
0.003091551911
0.003091684549
0.003091932766
0.003090241011
0.00307642491
0.003081800084
0.003075789818
0.003081787298
0.003091362948
0.003088700863
0.003078159846
0.003084280011
0.003079746059
0.003091980356
0.003091683234
0.003078738058
0.003079500008
0.003078314402
0.003076825899
0.003082049976
0.003076175891
0.003092698329
0.003092657165
0.003092697882
0.003092698236
0.00309269827
0.003092696656
0.003092527932
0.003092698004
0.003092695761
0.00309269567
0.003092696781
0.003092694662
0.003092530739
0.003092697516
0.003092696899
0.003092697119
0.003092696547
0.00309269728
0.003092697019
0.003092697874
0.003092696771
0.003092695857
0.003092696373
0.003092696429
0.00309269654
0.003091618244
0.003092320619
0.003092196031
0.003092225838
0.003092219817
0.003092305542
0.003092196748
0.003091677775
0.00309202333
0.003092088116
0.003091844197
0.003080526811
0.003084012207
0.003082810454
0.00308212705
0.003088994118
0.003080931853
0.003089012376
0.00308616235
0.003092000806
0.003087564218
0.003092137412
0.003091314597
0.002466852678
0.003086359879
0.00309269841
0.003092696756
0.003092695147
0.003092697954
0.003092695961
0.003092697214
0.003092696881
0.003092696293
0.003092695708
0.003092696279
0.003092691703
0.003092697853
0.003092698567
0.00309269845
0.003092697912
0.003092696945
0.003092697805
0.003092695731
0.003092696842
0.00309269607
0.003092697318
0.003092695798
0.003092698216
0.003092695605
0.003092696558
0.003091743281
0.003091841375
0.003092299236
0.003091789951
0.003091796359
0.003092310302
0.003091725825
0.003091830422
0.003091786466
0.003092149843
0.003091999052
0.003091605216
0.003076711159
0.003082693852
0.003083359565
0.003087720935
0.003084313203
0.003085114288
0.00309109226
0.003091109716
0.003086657337
0.00307652164
0.003082799801
0.003078598775
0.003090960117
0.003076717851
0.002462700231
0.002516699117
0.003092697069
0.003092697617
0.00309269734
0.003092697739
0.003092697228
0.00309269773
0.00309269561
0.003092695775
0.003092696837
0.003092698336
0.003092697376
0.003092697571
0.003092698119
0.003092698333
0.003092696909
0.003092697342
0.003092697774
0.003092696101
0.003092690638
0.003092696987
0.003092696973
0.003092694981
0.003092698005
0.003092697964
0.003092697991
0.003092697617
0.003092696913
0.003092696684
0.003092697286
0.003092696876
0.003092696756
0.003092698206
0.003092697197
0.003091127801
0.003091693859
0.003091214811
0.0030917654
0.003091265334
0.003091228445
0.003091886947
0.003091957063
0.00309178793
0.003085832729
0.003091774444
0.00309081519
0.003090912709
0.003091125461
0.003091159341
0.003092211109
0.003090724984
0.003090708486
0.00309125735
0.003092154808
0.003086558581
0.003077587406
0.003090325922
0.003091513976
0.002572374698
0.003080616207
0.003079767994
0.003089991417
0.003078147908
0.00308611538
0.003088572458
0.003076566882
0.003090378938
0.003080151923
0.003083275142
0.003090475311
0.003092696334
0.003092696846
0.003092696694
0.003092697893
0.003092696133
0.00309269829
0.0030925518
0.003092696259
0.00309269623
0.00309247803
0.003092698169
0.003092694955
0.003092697069
0.00309269455
0.00309167513
0.003092695899
0.003092696456
0.003092696888
0.003092695922
0.003092698106
0.00309269319
0.003092697461
0.003092697098
0.00309269538
0.003092697665
0.003092695418
0.003092695428
0.003092695355
0.003091056051
0.00309219651
0.003091016067
0.003091143968
0.003091971642
0.00309199393
0.003091958768
0.003090787884
0.003091872031
0.003091743358
0.002570429622
0.003085648685
0.003080694985
0.002783461786
0.003091921615
0.003076712988
0.003091482103
0.003087752288
0.002867017799
0.003085633816
0.003090993372
0.003075540093
0.003077564685
0.00309269751
0.003092575431
0.003092696059
0.003092698057
0.003092696058
0.003092697582
0.003092696491
0.00309269817
0.003092695008
0.003092696671
0.003092695671
0.003092696909
0.003092695673
0.003092696666
0.003092696232
0.003092696921
0.003092696349
0.003092696419
0.003092697111
0.003092697056
0.003092695207
0.003092695263
0.00309269719
0.003092696041
0.003092696639
0.003092697414
0.003092695641
0.003092697009
0.003091304047
0.003091394156
0.003091860934
0.003091647016
0.003090107883
0.003090074917
0.003091633432
0.003089660883
0.003089899581
0.003092354399
0.003092021853
0.003091238986
0.003092653687
0.003091993984
0.003092104501
0.003085866322
0.003090931927
0.003072919692
0.003090051115
0.003081412365
0.003079049134
0.003088070756
0.003089756266
0.003080927842
0.003091860688
0.003082650625
0.002805343789
0.003004734363
0.00252907022
0.00268275878
0.002712846698
0.002944499886
0.002886708588
0.003068764945
0.002946433082
0.002625746741
0.002897535324
0.003064291018
0.002537561142
0.003092695208
0.003092696653
0.003092696742
0.003092696094
0.00309269707
0.00309269777
0.003092698138
0.0030926985
0.003092697623
0.003092697158
0.00309269713
0.003092698203
0.003092698514
0.003092698247
0.003092697938
0.003092698131
0.003092697152
0.003092698201
0.00309269792
0.003092698397
0.003092696816
0.003092695187
0.003092697981
0.003092696382
0.003092697734
0.003092698017
0.003092697044
0.003092694667
0.003092698321
0.003092697345
0.003092696149
0.003092696957
0.003092697082
0.003092697678
0.003092698033
0.003092697168
0.003092697864
0.003092199691
0.003092056025
0.003091623728
0.003091537627
0.003092219636
0.003092044209
0.00308814557
0.003092225724
0.003091148885
0.003091818606
0.003091663224
0.00309163286
0.003088643732
0.003092295438
0.003090985714
0.00309200605
0.003090545163
0.003091001836
0.002971054833
0.003076503335
0.003091267351
0.003083203519
0.003090245927
0.0030863303
0.003076554595
0.003091828188
0.003091411662
0.003081426253
0.003081035647
0.003077229262
0.00307958479
0.003089242976
0.003083911142
0.003092161282
0.003074678171
0.003080853067
0.003085856415
0.003092696841
0.003092697021
0.003092697171
0.003092698036
0.003092695858
0.003092696073
0.003092697034
0.003092696372
0.003092675673
0.003092696953
0.003092695451
0.003092697237
0.003092696038
0.00309269791
0.003092697418
0.003092697294
0.003092695061
0.003092697242
0.003092694021
0.003092696318
0.003092697464
0.003092696412
0.003092697866
0.003092695502
0.003091235744
0.003091512674
0.003091919447
0.00309118334
0.003091297703
0.003091303903
0.003090798742
0.003091884035
0.003092038247
0.003090880378
0.003091126368
0.003091348058
0.003091428348
0.003091165639
0.003091399846
0.003090903412
0.00307744799
0.003073442567
0.003082968841
0.003085600904
0.00308796034
0.003086721131
0.003089903016
0.003075942315
0.003077086221
0.00308414577
0.003090258397
0.002582828413
0.003092698349
0.003092697237
0.003092697741
0.003092698056
0.003092696949
0.003092698509
0.003092697003
0.003092413377
0.00309269809
0.003092696555
0.003092697816
0.003092698411
0.003092696498
0.003092697311
0.003092696024
0.00309269791
0.003092697944
0.003092696694
0.003092696444
0.003092697313
0.003092697667
0.003092697165
0.003092697732
0.003092696802
0.003092696455
0.003092697149
0.003092419645
0.003091055921
0.003092439146
0.003091782254
0.003092015647
0.003092216172
0.003091977883
0.003092391546
0.003091677748
0.003092305195
0.003091563952
0.003091706866
0.003092351651
0.003087782068
0.003090819561
0.00308055143
0.003088130097
0.003082526296
0.003089399599
0.003090263416
0.003090847631
0.003078974353
0.003075178289
0.003087602542
0.003086120306
0.002477667112
0.002612667374
0.002929086909
0.002991828504
0.002708420183
0.003071066913
0.002440664333
0.002440835672
0.002423519707
0.002464990372
0.002417895649
0.002427358317
0.002426451054
0.002426343201
0.002426163256
0.002439722805
0.002430805804
0.002423050017
0.002441459384
0.002441465692
0.002422876955
0.002423357064
0.002566469607
0.002438058272
0.002438627925
0.002577944019
0.002863801461
0.002440064395
0.002418923434
0.002427649182
0.002583282119
0.00286211454
0.002422525113
0.002415287761
0.002416349952
0.002428290543
0.002420767414
0.002422695097
0.002414847526
0.002415573212
0.002423196415
0.002422673856
0.002412893026
0.00241436847
0.002419365035
0.002413641421
0.00241507994
0.002419584275
0.002422114655
0.002415165943
0.00241606073
0.00241226596
0.002421080489
0.002415341694
0.002415832948
0.002411262048
0.002414021149
0.002419246454
0.002422637707
0.002438833084
0.002437925017
0.002440945093
0.002430803508
0.00242318377
0.002437697762
0.002442688448
0.002428485618
0.002440685446
0.002435877093
0.002425127644
0.002440458343
0.002440361003
0.002424512228
0.002426075134
0.002421526247
0.002421117871
0.002423544245
0.002424925704
0.002422339037
0.002423417024
0.002431182318
0.00241857056
0.002423479346
0.002424606542
0.002421146995
0.002419323997
0.002422251518
0.00241805081
0.00242570832
0.00242267004
0.002425685189
0.002421146361
0.00242456508
0.00243920429
0.002429506679
0.002439430229
0.002440299179
0.002430636624
0.002426316709
0.002430024804
0.002440319906
0.00244113535
0.002442549121
0.002428442203
0.002432213963
0.002426397433
0.002443386807
0.00243506016
0.002440741307
0.002440782222
0.002438928472
0.002419423372
0.002423117375
0.002422907796
0.002422014906
0.002431499724
0.002422952404
0.002421822144
0.002423336605
0.002422915846
0.002417778185
0.002431031366
0.002427193031
0.0024256303
0.002423679947
0.002421573836
0.002444083057
0.002425490597
0.002439232116
0.002439826013
0.002533695378
0.002422666064
0.002439643985
0.002424331856
0.002436441089
0.002438808077
0.002421396308
0.002436652413
0.002424802635
0.002442161465
0.002425061885
0.002460366989
0.00246129647
0.002439748418
0.002435319994
0.002441113142
0.002440823908
0.002886712132
0.002438514017
0.002439828693
0.002425265688
0.002439827783
0.002424160752
0.002424560137
0.002422813255
0.002427054711
0.002417117901
0.002418065308
0.0024244437
0.002422685051
0.002417038049
0.002420764329
0.002422744731
0.002417966582
0.002416726217
0.002422429726
0.002418086503
0.002421599822
0.002420385978
0.002418995058
0.002423282828
0.002438064305
0.002535267942
0.002430775041
0.002434847461
0.002458759783
0.002443318235
0.002422935979
0.002436908164
0.002438318548
0.002424180226
0.002439803303
0.002484967181
0.002633575558
0.002419589445
0.002439825586
0.002538444239
0.002423876358
0.002736275772
0.002440748442
0.00243742957
0.002433898099
0.002428382434
0.002442116864
0.002432667066
0.002420702017
0.002429800605
0.002424850015
0.002426057334
0.002422407489
0.002423133118
0.002423983271
0.002421937849
0.002425382028
0.002429109748
0.00242020121
0.002420445647
0.002423439201
0.002425273254
0.002435298341
0.002424252441
0.002434058761
0.00243879716
0.002439607956
0.002424999126
0.002427499765
0.002439554348
0.002438239092
0.002427497294
0.002439743535
0.002439675849
0.002430271458
0.002426139895
0.002437337658
0.002428713404
0.002425866082
0.002421307429
0.00241824855
0.002427281639
0.002419553849
0.002420817836
0.002432360079
0.002424819066
0.002422352846
0.002419116892
0.002423589113
0.002422667872
0.002424500731
0.002430783353
0.002417817992
0.002420928469
0.002418642741
0.002418593791
0.002431470759
0.002435507033
0.002431467357
0.002553375398
0.002443720926
0.002429998414
0.002428757183
0.002443039718
0.002434677355
0.002425102228
0.002441327141
0.002440651906
0.002444517791
0.002445099057
0.002434467296
0.002437814308
0.002437641968
0.002466218541
0.002440834936
0.002423664401
0.00244122715
0.002424980991
0.002421089433
0.002441633524
0.002425136995
0.002427183732
0.002418767568
0.00243623731
0.002423976089
0.002439779267
0.002461463073
0.002561242707
0.00242074788
0.00242868779
0.002422809624
0.002425696104
0.002425707775
0.002421168385
0.00243064134
0.00243029073
0.002427239349
0.002418796432
0.002420847367
0.002420706515
0.002417068367
0.002420716647
0.002420386673
0.002422031197
0.002417447961
0.002419879378
0.002421636185
0.002419082808
0.00242445909
0.002422578167
0.00241997057
0.002418735046
0.002418555593
0.002424932897
0.002425156699
0.002417719163
0.002415659361
0.002420371412
0.002417807771
0.002437082824
0.002425044212
0.002429346033
0.002423456145
0.002438552322
0.002435796087
0.00243648279
0.002436722099
0.002433362793
0.002508785936
0.002430621518
0.002437250054
0.002426768437
0.002441394214
0.002432961567
0.002419228836
0.002425278228
0.002422623105
0.002423225037
0.002417371072
0.002421888169
0.002418150655
0.002423027169
0.00242372053
0.00241903744
0.002418023168
0.002421248246
0.002426574509
0.002428634888
0.002425703464
0.002427668111
0.002424270969
0.0024294212
0.002431969355
0.002450567782
0.002450782763
0.002423750891
0.002440824898
0.002438146966
0.002440276439
0.002430324145
0.002441505751
0.002443734997
0.002427608523
0.002436071613
0.002442315696
0.002437616015
0.002481202165
0.002424676351
0.002430962338
0.002704101849
0.002430511357
0.002427987055
0.002422403354
0.002416077384
0.002419868616
0.002419987113
0.002421600909
0.002421781139
0.002426163371
0.002433595791
0.002423514789
0.002425783579
0.002422150044
0.002420069793
0.002422816482
0.002420024723
0.002421711087
0.002422396013
0.002422470791
0.002427432116
0.002422166559
0.00242313285
0.002419637543
0.002439825799
0.002423141022
0.002439961873
0.002425728234
0.002437775077
0.002438866794
0.002423428953
0.002425498875
0.002423857189
0.002422664123
0.002436134722
0.002439516379
0.002421933332
0.002460135197
0.00242438104
0.002440626614
0.002436532431
0.00242394331
0.002426194267
0.002426674434
0.00244272629
0.002439523654
0.002422824048
0.002437018953
0.002443210661
0.002428283242
0.00242928932
0.002442480517
0.002443926472
0.002419556614
0.002422416893
0.002419751087
0.00242140518
0.002421306398
0.002418086028
0.002421774041
0.002421266068
0.002418893981
0.002419700432
0.002419039368
0.00242223652
0.002424215741
0.002418668585
0.002424695026
0.002425118468
0.002417963654
0.002420372652
0.002424857654
0.002426847433
0.002438962686
0.002441256981
0.002426794589
0.002430612071
0.002465221296
0.002427792464
0.002443261904
0.00242181515
0.002441678648
0.002427591194
0.002460074338
0.002441395125
0.002427014379
0.002433143399
0.002442790659
0.00244180725
0.002441127834
0.002427603054
0.002436288673
0.002425143458
0.00242091856
0.002424034509
0.002428746972
0.002428513628
0.002423962229
0.002428082879
0.002425620101
0.002423649165
0.002424319815
0.002424140081
0.002426089218
0.00242880177
0.002419414982
0.002436249005
0.002476851625
0.002784721797
0.002425115265
0.002438994435
0.002494470547
0.00242294976
0.002435202883