/*--------------------------------*- C++ -*----------------------------------*\
  =========                 |
  \\      /  F ield         | OpenFOAM: The Open Source CFD Toolbox
   \\    /   O peration     | Website:  https://openfoam.org
    \\  /    A nd           | Version:  7
     \\/     M anipulation  |
\*---------------------------------------------------------------------------*/
FoamFile
{
    version     2.0;
    format      ascii;
    class       scalarField;
    location    "2/lagrangian/coalCloud1";
    object      rChar;
}
// * * * * * * * * * * * * * * * * * * * * * * * * * * * * * * * * * * * * * //


2000
(
0
0
0
0
0
0
0
0
0
0
0
0
0
0
0
0
0
0
0
0
0
0
0
0
0
0
0
0
0
0
0
0
0
0
0
0
0
0
0
0
0
0
0
0
0
0
0
0
0
0
0
0
0
0
0
0
0
0
0
0
0
0
0
0
0
0
0
0
0
0
0
0
0
0
0
0
0
0
0
0
0
0
0
0
0
0
0
0
0
0
0
0
0
0
0
0
0
0
0
0
0
0
0
0
0
0
0
0
0
0
0
0
0
0
0
0
0
0
0
0
0
0
0
0
0
0
0
0
0
0
0
0
0
0
0
0
0
0
0
0
0
0
0
0
0
0
0
0
0
0
0
0
0
0
0
0
0
0
0
0
0
0
0
0
0
0
0
0
0
0
0
0
0
0
0
0
0
0
0
0
0
0
0
0
0
0
0
0
0
0
0
0
0
0
0
0
0
0
0
0
0
0
0
0
0
0
0
0
0
0
0
0
0
0
0
0
0
0
0
0
0
0
0
0
0
0
0
0
0
0
0
0
0
0
0
0
0
0
0
0
0
0
0
0
0
0
0
0
0
0
0
0
0
0
0
0
0
0
0
0
0
0
0
0
0
0
0
0
0
0
0
0
0
0
0
0
0
0
0
0
0
0
0
0
0
0
0
0
0
0
0
0
0
0
0
0
0
0
0
0
0
0
0
0
0
0
0
0
0
0
0
0
0
0
0
0
0
0
0
0
0
0
0
0
0
0
0
0
0
0
0
0
0
0
0
0
0
0
0
0
0
0
0
0
0
0
0
0
0
0
0
0
0
0
0
0
0
0
0
0
0
0
0
0
0
0
0
0
0
0
0
0
0
0
0
0
0
0
0
0
0
0
0
0
0
0
0
0
0
0
0
0
0
0
0
0
0
0
0
0
0
0
0
0
0
0
0
0
0
0
0
0
0
0
0
0
0
0
0
0
0
0
0
0
0
0
0
0
0
0
0
0
0
0
0
0
0
0
0
0
0
0
0
0
0
0
0
0
0
0
0
0
0
0
0
0
0
0
0
0
0
0
0
0
0
0
0
0
0
0
0
0
0
0
0
0
0
0
0
0
0
0
0
0
0
0
0
0
0
0
0
0
0
0
0
0
0
0
0
0
0
0
0
0
0
0
0
0
0
0
0
0
0
0
0
0
0
0
0
0
0
0
0
0
0
0
0
0
0
0
0
0
0
0
0
0
0
0
0
0
0
0
0
0
0
0
0
0
0
0
0
0
0
0
0
0
0
0
0
0
0
0
0
0
0
0
0
0
0
0
0
0
0
0
0
0
0
0
0
0
0
0
0
0
0
0
0
0
0
0
0
0
0
0
0
0
0
0
0
0
0
0
0
0
0
0
0
0
0
0
0
0
0
0
0
0
0
0
0
0
0
0
0
0
0
0
0
0
0
0
0
0
0
0
0
0
0
0
0
0
0
0
0
0
0
0
0
0
0
0
0
0
0
0
0
0
0
0
0
0
0
0
0
0
0
0
0
0
0
0
0
0
0
0
0
0
0
0
0
0
0
0
0
0
0
0
0
0
0
0
0
0
0
0
0
0
0
0
0
0
0
0
0
0
0
0
0
0
0
0
0
0
0
0
0
0
0
0
0
0
0
0
0
0
0
0
0
0
0
0
0
0
0
0
0
0
0
0
0
0
0
0
0
0
0
0
0
0
0
0
0
0
0
0
0
0
0
0
0
0
0
0
0
0
0
0
0
0
0
0
0
0
0
0
0
0
0
0
0
0
0
0
0
0
0
0
0
0
0
0
0
0
0
0
0
0
0
0
0
0
0
0
0
0
0
0
0
0
0
4.486357381e-22
2.80421344e-22
1.293611519e-21
1.854800906e-21
2.098774544e-21
2.124900342e-22
1.369256617e-22
2.124799848e-22
2.342958908e-22
2.0659687e-22
2.837100253e-22
1.784590916e-22
1.210633122e-22
0
1.383853641e-22
1.735595487e-22
1.230235174e-22
1.928759602e-22
3.351836129e-21
5.41834992e-20
9.192041041e-21
1.937277688e-17
9.805252737e-20
2.300557752e-18
2.736487121e-22
2.516202511e-19
2.089724323e-20
8.451281341e-22
9.288500599e-20
2.321240208e-20
3.085953902e-17
5.036516494e-20
1.164218073e-21
2.108166982e-20
1.42351629e-24
0
0
0
0
0
0
0
0
0
0
0
0
0
0
0
0
0
0
0
0
0
0
0
0
0
0
0
2.398644103e-22
1.755156284e-22
9.12114959e-23
2.197577669e-22
6.919378858e-22
5.557952875e-22
6.291893477e-23
6.265723919e-22
5.258625904e-22
8.184668909e-23
3.859875994e-22
3.596117991e-22
1.930548556e-21
1.063285509e-20
1.150290533e-19
1.138718071e-17
5.800508769e-19
4.137431689e-21
4.29517423e-19
1.166953347e-17
2.16586472e-17
6.863025867e-19
3.293744014e-20
3.185610482e-19
1.040877324e-20
0
0
0
0
0
0
0
0
0
0
0
0
0
0
0
0
0
0
0
0
0
0
0
0
0
0
4.043844917e-22
3.231556161e-22
1.790673684e-21
4.013710909e-22
4.012605264e-22
1.612037995e-24
1.338533611e-22
1.209772446e-22
3.366785906e-23
1.301351392e-22
1.26350303e-20
2.178855834e-18
2.283275533e-18
5.248845417e-19
2.554725673e-19
3.057440271e-23
6.085870257e-21
1.007655477e-21
1.493923552e-19
5.39001232e-21
1.615442979e-22
1.584956455e-21
1.029221082e-19
3.258408352e-21
3.57278253e-12
0
1.389459646e-16
1.223047822e-14
3.733765174e-12
1.258615258e-11
3.319126572e-17
7.712167249e-18
1.690858892e-14
1.557421407e-11
2.356647668e-21
0
0
0
0
0
0
0
0
0
0
0
0
0
0
0
0
0
0
0
0
0
0
0
0
0
0
0
0
0
0
0
0
0
0
0
0
0
0
5.84692413e-22
2.228712266e-22
1.146209928e-22
1.131528828e-22
4.754680273e-22
6.06815197e-22
2.150705265e-22
1.214583445e-22
5.876624076e-23
1.037134709e-22
7.134347107e-21
4.13987919e-22
4.082121134e-22
5.068108037e-22
5.633104418e-22
1.930296511e-22
3.260143832e-22
2.158237454e-22
4.186176975e-22
2.089281504e-22
2.099477095e-22
1.119447946e-20
1.276469318e-17
2.54187347e-19
4.295684317e-18
2.384744728e-19
1.940266293e-21
9.71593505e-21
1.403188331e-18
2.762093696e-19
3.926667833e-19
1.718252242e-22
3.143769349e-22
1.239403879e-18
7.32100418e-19
1.301588968e-18
1.590405563e-18
2.958866845e-19
1.361480582e-17
0
0
0
0
0
0
0
0
0
0
0
0
0
0
0
0
0
0
0
0
0
0
0
0
0
4.050232038e-22
5.966393226e-23
7.717674616e-23
1.069119947e-22
6.964377825e-23
7.106187203e-23
5.949620916e-23
2.80975659e-22
1.412121391e-22
1.138798012e-22
3.394124035e-22
5.938582072e-19
1.075150241e-19
2.315033216e-19
3.344224389e-19
5.098286037e-21
5.529616557e-19
1.276957829e-20
5.230778281e-20
8.152444756e-23
2.076837655e-20
7.52228637e-23
4.946116021e-22
2.105715801e-18
4.492255883e-20
0
0
0
0
0
0
0
0
0
0
0
0
0
0
0
0
0
0
0
0
0
0
0
0
0
3.305513528e-22
2.513767354e-22
5.008488176e-23
2.924231216e-22
2.856139832e-22
4.745199696e-23
3.488038767e-22
2.693691684e-22
3.04137051e-22
9.798722883e-23
1.5188879e-22
4.130128206e-22
5.942064035e-18
3.322806797e-19
1.365613876e-19
1.481348941e-20
8.92040663e-20
6.878763049e-20
1.157484751e-21
1.06152805e-21
2.926920997e-20
1.282858699e-17
1.572097295e-19
9.056532288e-19
9.366617217e-22
1.981140974e-18
7.201024842e-12
1.084704646e-11
0
0
0
0
0
0
0
0
0
0
0
0
0
0
0
0
0
0
0
0
0
0
0
0
0
0
0
0
0
0
0
0
0
4.417430657e-24
2.647945272e-22
9.154809653e-22
2.280968296e-22
8.397576661e-22
8.866082536e-22
1.803783637e-22
1.563262652e-22
2.380259214e-22
1.992153592e-20
2.450971919e-22
1.340376888e-21
1.18966e-21
8.279905813e-22
7.991785605e-22
7.472455717e-23
8.499219141e-22
8.78485591e-22
6.754667825e-22
9.267426266e-23
1.604052338e-20
2.274592982e-18
1.691185261e-21
3.435160179e-22
9.277079375e-19
7.240134181e-19
7.440709753e-19
1.750533394e-21
1.32803942e-18
2.708887924e-20
9.61071526e-21
1.07329927e-17
2.194096891e-21
5.64661998e-19
1.139026422e-19
1.19758509e-21
0
0
0
0
0
0
0
0
0
0
0
0
0
0
2.897016804e-24
0
0
0
0
0
0
0
0
0
0
0
0
0
1.325788207e-21
1.229449801e-22
1.298072019e-21
1.150801701e-21
1.464945018e-22
1.384545393e-22
1.505369372e-22
1.532163395e-21
2.889769264e-22
2.613940835e-22
2.439689656e-19
1.005627654e-19
5.262707117e-19
3.594146984e-15
2.232332283e-22
8.973629021e-18
4.602370475e-22
1.512952649e-20
4.241094769e-13
5.294572171e-20
1.107398316e-21
2.015340424e-17
1.637220559e-17
0
0
0
0
0
0
0
0
0
0
0
0
0
0
0
0
0
0
0
0
0
0
0
0
0
0
0
0
6.222586703e-22
5.717843364e-22
2.94349419e-22
3.549663493e-22
2.287947813e-21
2.374571201e-21
3.706888162e-22
3.460983895e-21
2.799197566e-21
5.13965541e-23
1.079297184e-22
4.726507872e-22
0
1.165616757e-22
7.719109305e-23
4.66207889e-20
1.137752778e-21
1.050433922e-17
2.91771877e-21
2.853049403e-19
5.864052284e-19
1.029074172e-20
2.937351223e-21
3.359631725e-19
1.60534873e-22
1.704346402e-19
1.859116811e-14
3.695529528e-15
2.519500601e-11
1.059844007e-16
4.258547124e-16
1.309816217e-13
4.534152308e-15
7.493755756e-17
8.1351717e-13
3.88276855e-19
1.036747678e-12
2.19454186e-16
1.393985014e-11
0
0
0
0
0
0
0
0
0
0
0
0
0
0
0
0
0
0
0
0
0
0
0
0
0
0
0
0
0
0
0
0
0
0
0
0
0
9.433181472e-23
1.1198741e-22
3.84912658e-22
4.652304003e-22
8.81702325e-23
1.164229879e-22
1.280506214e-20
1.064675129e-22
1.481647078e-21
7.516561278e-22
4.820423257e-22
5.185734438e-22
1.018452346e-20
8.838444452e-23
1.427574126e-21
1.547153484e-22
1.960216064e-21
1.401141906e-21
3.145981414e-14
1.025684756e-17
3.597747063e-21
1.226586088e-19
2.222469941e-21
2.878340794e-20
1.663843318e-18
3.114403633e-22
7.580799916e-22
5.734753417e-19
5.272665648e-19
1.385368406e-17
4.361087414e-18
6.733111217e-21
1.753165218e-19
1.279128793e-22
4.141995469e-17
4.068953254e-19
2.209111126e-20
0
0
0
0
0
0
0
0
0
0
0
0
0
0
0
0
0
0
0
0
0
0
0
0
6.008010972e-22
3.791805177e-22
1.622629396e-22
6.519749886e-22
5.311639888e-22
5.30359034e-22
1.048734988e-21
1.812323748e-22
2.796349062e-22
1.033789949e-21
1.161497952e-21
4.389341784e-22
3.938215337e-22
5.838721473e-22
4.207217741e-22
9.687583989e-22
1.599581535e-18
3.168691119e-17
1.460235714e-19
6.437339203e-20
1.793131714e-20
3.520721078e-20
8.225033898e-22
2.221227325e-17
1.570708127e-18
7.843432575e-20
8.928728809e-22
2.690278733e-20
0
0
0
0
0
0
0
0
0
0
0
0
0
0
0
0
0
0
0
0
0
0
0
0
0
0
2.940216158e-23
1.296643384e-21
2.529844783e-23
3.263602786e-22
2.213491626e-22
8.230712341e-23
2.503052192e-22
3.465655589e-23
3.611206381e-22
5.655457841e-23
4.618239362e-22
3.400245152e-22
4.638477661e-23
2.314021575e-20
1.274448468e-21
1.08264918e-18
1.691559336e-20
1.171843909e-19
5.52384043e-21
2.935278948e-21
1.494802681e-21
1.067192661e-18
4.580256259e-18
1.867680936e-20
4.223587514e-20
8.76645656e-12
8.492834659e-12
6.039459148e-12
4.997360874e-14
5.272473171e-11
1.081075895e-16
0
0
0
4.298358627e-12
0
0
0
0
0
0
0
0
0
0
0
0
2.432975742e-11
0
0
4.823363871e-11
2.130182723e-10
0
0
0
4.079012707e-11
2.120527321e-10
0
0
0
0
0
0
0
0
0
0
0
0
0
0
0
0
0
0
0
0
0
0
0
0
0
0
0
0
0
0
0
0
0
0
0
0
0
0
0
0
0
0
0
0
0
0
0
0
0
0
0
0
0
0
0
0
0
0
0
0
0
0
0
0
0
0
0
0
0
0
0
0
0
0
0
0
0
0
0
0
0
0
0
0
0
0
0
0
0
0
0
0
0
0
0
0
0
0
3.566832246e-11
0
0
0
0
0
0
0
0
0
0
7.433088906e-12
3.258575917e-12
0
0
0
0
1.547245041e-10
0
0
0
0
0
0
0
0
0
0
0
0
0
0
0
0
0
0
0
0
0
0
0
0
2.94613844e-11
0
0
9.39324333e-12
0
0
0
0
0
0
1.574052746e-11
7.21057994e-11
0
0
1.831491898e-11
0
1.027021907e-10
0
0
0
0
0
0
0
0
0
0
0
0
0
0
0
0
0
0
0
0
0
0
0
0
0
0
0
0
0
0
0
0
0
0
0
0
0
0
0
0
0
0
0
0
0
0
0
0
0
0
0
0
0
0
0
0
0
1.118186384e-17
0
0
0
0
0
0
0
0
0
0
0
0
0
7.691421942e-12
0
0
0
0
0
0
0
0
0
0
0
0
3.911015197e-12
1.351637264e-11
0
0
0
0
0
0
0
0
0
0
0
0
0
0
0
0
0
0
0
0
0
0
0
0
0
0
0
0
0
0
0
0
0
0
0
0
0
0
0
0
2.556739033e-11
0
0
0
0
0
0
0
0
0
0
0
0
0
0
0
0
0
0
0
0
0
0
0
0
0
0
0
0
0
0
0
0
0
0
0
0
0
1.872759368e-11
0
0
3.901303723e-11
0
0
0
0
0
0
0
0
0
0
0
0
0
0
0
0
0
0
0
0
0
0
0
0
0
0
0
0
0
0
0
0
0
0
0
0
5.073440828e-14
0
0
0
0
0
0
0
0
0
0
0
0
0
0
0
0
0
0
0
0
0
0
0
0
0
0
0
0
0
0
0
0
0
0
0
0
0
0
0
9.07256607e-12
0
0
0
0
0
7.245373295e-12
0
0
0
0
0
0
0
0
0
0
0
0
0
0
0
0
0
0
0
0
0
0
0
1.127195842e-11
6.059141192e-11
0
0
1.512271446e-11
0
0
0
7.73424638e-12
0
0
0
0
1.632787037e-10
0
0
0
0
0
0
0
0
0
0
0
0
0
0
0
0
0
0
0
0
0
0
)


// ************************************************************************* //
