/*--------------------------------*- C++ -*----------------------------------*\
  =========                 |
  \\      /  F ield         | OpenFOAM: The Open Source CFD Toolbox
   \\    /   O peration     | Website:  https://openfoam.org
    \\  /    A nd           | Version:  7
     \\/     M anipulation  |
\*---------------------------------------------------------------------------*/
FoamFile
{
    version     2.0;
    format      ascii;
    class       scalarField;
    location    "2/lagrangian/coalCloud1";
    object      rComb;
}
// * * * * * * * * * * * * * * * * * * * * * * * * * * * * * * * * * * * * * //


2000
(
0
0
0
0
0
0
0
0
0
0
0
0
0
0
0
0
0
0
0
0
0
0
0
0
0
0
0
0
0
0
0
0
0
0
0
0
0
0
0
0
0
0
0
0
0
0
0
0
0
0
0
0
0
0
0
0
0
0
0
0
0
0
0
0
0
0
0
0
0
0
0
0
0
0
0
0
0
0
0
0
0
0
0
0
0
0
0
0
0
0
0
0
0
0
0
0
0
0
0
0
0
0
0
0
0
0
0
0
0
0
0
0
0
0
0
0
0
0
0
0
0
0
0
0
0
0
0
0
0
0
0
0
0
0
0
0
0
0
0
0
0
0
0
0
0
0
0
0
0
0
0
0
0
0
0
0
0
0
0
0
0
0
0
0
0
0
0
0
0
0
0
0
0
0
0
0
0
0
0
0
0
0
0
0
0
0
0
0
0
0
0
0
0
0
0
0
0
0
0
0
0
0
0
0
0
0
0
0
0
0
0
0
0
0
0
0
0
0
0
0
0
0
0
0
0
0
0
0
0
0
0
0
0
0
0
0
0
0
0
0
0
0
0
0
0
0
0
0
0
0
0
0
0
0
0
0
0
0
0
0
0
0
0
0
0
0
0
0
0
0
0
0
0
0
0
0
0
0
0
0
0
0
0
0
0
0
0
0
0
0
0
0
0
0
0
0
0
0
0
0
0
0
0
0
0
0
0
0
0
0
0
0
0
0
0
0
0
0
0
0
0
0
0
0
0
0
0
0
0
0
0
0
0
0
0
0
0
0
0
0
0
0
0
0
0
0
0
0
0
0
0
0
0
0
0
0
0
0
0
0
0
0
0
0
0
0
0
0
0
0
0
0
0
0
0
0
0
0
0
0
0
0
0
0
0
0
0
0
0
0
0
0
0
0
0
0
0
0
0
0
0
0
0
0
0
0
0
0
0
0
0
0
0
0
0
0
0
0
0
0
0
0
0
0
0
0
0
0
0
0
0
0
0
0
0
0
0
0
0
0
0
0
0
0
0
0
0
0
0
0
0
0
0
0
0
0
0
0
0
0
0
0
0
0
0
0
0
0
0
0
0
0
0
0
0
0
0
0
0
0
0
0
0
0
0
0
0
0
0
0
0
0
0
0
0
0
0
0
0
0
0
0
0
0
0
0
0
0
0
0
0
0
0
0
0
0
0
0
0
0
0
0
0
0
0
0
0
0
0
0
0
0
0
0
0
0
0
0
0
0
0
0
0
0
0
0
0
0
0
0
0
0
0
0
0
0
0
0
0
0
0
0
0
0
0
0
0
0
0
0
0
0
0
0
0
0
0
0
0
0
0
0
0
0
0
0
0
0
0
0
0
0
0
0
0
0
0
0
0
0
0
0
0
0
0
0
0
0
0
0
0
0
0
0
0
0
0
0
0
0
0
0
0
0
0
0
0
0
0
0
0
0
0
0
0
0
0
0
0
0
0
0
0
0
0
0
0
0
0
0
0
0
0
0
0
0
0
0
0
0
0
0
0
0
0
0
0
0
0
0
0
0
0
0
0
0
0
0
0
0
0
0
0
0
0
0
0
0
0
0
0
0
0
0
0
0
0
0
0
0
0
0
0
0
0
0
0
0
0
0
0
0
0
0
0
0
0
0
0
0
0
0
0
0
0
0
0
0
0
0
0
0
0
0
0
0
0
0
0
0
0
0
0
0
0
0
0
0
0
0
0
0
0
0
0
0
0
0
0
0
0
0
0
0
0
0
0
0
0
0
0
0
0
0
0
0
0
0
0
0
0
0
0
0
0
0
0
0
0
0
0
0
0
0
0
0
0
0
0
0
0
0
0
0
0
0
0
0
0
0
0
0
0
0
0
0
0
0
0
0
0
0
0
0
0
0
0
0
0
0
0
0
0
0
0
0
0
0
0
0
0
0
0
0
0
0
0
0
0
0
0
0
0
0
0
0
0
0
0
0
0
0
0
0
0
0
0
0
0
0
0
0
0
0
0
0
0
0
0
0
0
0
0
0
0
0
0
0
0
0
0
0
0
0
0
0
0
0
0
0
0
0
0
0
0
0
0
0
0
0
0
0
0
0
0
0
0
0
0
0
0
0
0
0
0
0
0
0
0
0
0
0
0
0
0
0
0
0
0
0
0
0
0
0
0
0
0
1.020549532e-13
0
0
0
0
0
0
0
0
0
0
0
0
0
0
0
0
0
0
0
0
0
0
0
0
0
0
0
0
0
0
0
0
0
0
0
0
0
0
0
0
0
0
0
0
0
0
0
0
0
0
0
0
0
0
0
0
0
0
0
0
0
0
0
0
0
0
0
0
0
0
0
0
0
0
0
0
0
0
0
0
0
0
0
0
0
0
0
0
0
0
0
0
0
0
0
0
0
0
0
0
0
0
0
0
0
0
0
0
0
0
0
0
0
0
0
0
0
0
0
0
0
0
0
0
0
0
0
0
0
0
0
0
0
0
0
0
0
0
0
0
0
0
0
0
0
0
0
0
0
0
0
0
0
0
0
0
0
0
0
0
0
0
0
0
0
0
0
0
0
0
0
0
0
0
0
0
0
0
0
0
0
0
0
0
0
0
0
0
0
0
0
0
0
0
0
0
0
0
0
0
0
0
0
0
0
0
0
0
0
0
0
0
0
0
0
0
0
0
0
0
0
0
0
0
0
0
0
0
0
0
0
0
0
0
0
0
0
0
0
0
0
0
0
0
0
0
0
0
0
0
0
0
0
0
0
0
0
0
0
0
0
0
0
0
0
0
0
0
0
0
0
0
0
0
0
0
0
0
0
0
0
0
0
0
0
0
0
0
0
0
0
0
0
0
0
0
0
0
0
0
0
0
0
0
0
0
0
0
0
0
0
0
0
0
0
0
0
0
0
0
0
0
0
0
0
0
0
0
0
0
0
0
0
0
0
0
0
0
0
0
0
0
0
0
0
0
0
0
0
0
0
0
0
0
0
0
0
0
0
0
0
0
0
0
0
0
0
0
0
0
0
0
0
0
0
0
0
0
0
0
0
0
0
0
0
0
0
0
0
0
0
0
0
0
0
0
0
0
0
0
0
0
0
0
0
0
0
0
0
0
0
0
0
0
0
0
0
0
0
0
0
0
0
0
0
0
0
0
0
0
0
0
0
0
0
0
0
0
0
0
0
0
0
0
0
0
0
0
0
0
0
0
0
0
0
0
0
0
0
0
0
0
0
0
0
0
0
0
0
0
0
0
0
0
0
0
0
0
0
0
0
0
0
0
0
0
0
0
0
0
0
0
0
0
0
0
0
0
0
0
0
0
0
0
0
0
0
0
0
0
0
0
0
0
0
0
0
0
0
0
0
0
0
0
0
0
0
0
0
0
0
0
0
0
0
0
0
0
0
0
0
0
0
0
0
0
0
0
0
0
0
0
0
0
0
0
0
0
0
6.280861539e-11
6.09043412e-11
7.371656952e-11
0
8.99809978e-11
6.853932488e-11
7.319594179e-11
7.288764277e-11
8.867151827e-11
6.24804372e-11
7.499005296e-11
7.67715013e-11
6.228139643e-11
6.032965817e-11
7.059247089e-11
9.831556284e-11
0
6.730577224e-11
6.679440431e-11
0
0
7.100534547e-11
7.542861107e-11
7.623769042e-11
0
0
7.925065044e-11
9.768567526e-11
9.254041492e-11
7.64844437e-11
7.695236459e-11
7.652097874e-11
9.76200783e-11
9.215938606e-11
7.509967205e-11
7.440356873e-11
1.124861113e-10
1.039073733e-10
8.372127338e-11
1.057912779e-10
1.058639341e-10
8.084836772e-11
7.539018447e-11
8.120291152e-11
1.002924334e-10
1.090030993e-10
8.117009025e-11
8.24151075e-11
8.203499469e-11
1.099583844e-10
1.039608663e-10
8.7074778e-11
8.339725558e-11
6.88214912e-11
6.898407008e-11
6.45139354e-11
6.321397887e-11
7.946780465e-11
6.67136868e-11
5.236557746e-11
7.277055827e-11
5.922564104e-11
7.115678352e-11
6.468951835e-11
6.493506727e-11
6.210319759e-11
7.601737917e-11
8.357712618e-11
8.024371173e-11
8.267436632e-11
7.849759461e-11
8.118900043e-11
8.058378227e-11
8.163158135e-11
6.49961133e-11
7.370262607e-11
6.596496868e-11
6.943952263e-11
7.139309775e-11
7.926259597e-11
8.341514082e-11
8.620934915e-11
8.597948599e-11
7.490394209e-11
8.747030884e-11
7.559935615e-11
7.287468334e-11
6.927040361e-11
7.240529669e-11
6.85690686e-11
6.525509178e-11
7.994745595e-11
7.140083172e-11
6.62107385e-11
6.867078293e-11
6.474171535e-11
5.874653353e-11
6.843403145e-11
6.390080485e-11
6.272979515e-11
5.366744254e-11
8.599172259e-11
5.575554992e-11
5.578356882e-11
7.58547764e-11
8.005047757e-11
7.653026056e-11
7.473457132e-11
7.401512518e-11
7.381282818e-11
7.639425163e-11
7.365927949e-11
6.684635246e-11
6.86624457e-11
9.731753917e-11
7.62559355e-11
9.146932962e-11
6.475358724e-11
6.765464743e-11
9.733857728e-11
8.454082925e-11
7.665968784e-11
7.38576615e-11
7.267190347e-11
0
9.050033553e-11
7.245062943e-11
8.179901123e-11
8.078797832e-11
6.322127355e-11
8.991698158e-11
8.106828676e-11
7.06004507e-11
6.120526769e-11
7.553476089e-11
0
0
6.50330722e-11
6.797052656e-11
6.391655466e-11
6.732174839e-11
0
8.056797955e-11
6.338350556e-11
7.228917971e-11
6.893674427e-11
7.53765092e-11
7.36256649e-11
8.390063912e-11
9.001389656e-11
9.76036658e-11
9.3151698e-11
7.670269292e-11
7.742353657e-11
9.958576652e-11
7.592302205e-11
8.019106128e-11
9.145836484e-11
8.087502791e-11
8.052931307e-11
9.46378152e-11
7.866624639e-11
8.400397757e-11
9.18081527e-11
7.271919628e-11
6.921976669e-11
0
6.195719033e-11
5.92706132e-11
0
5.309624199e-11
8.240531767e-11
7.704656412e-11
7.099395481e-11
8.478098395e-11
7.673358624e-11
0
0
8.761944489e-11
7.437533819e-11
0
8.869241287e-11
0
5.495583041e-11
8.043482713e-11
8.403607528e-11
6.866007746e-11
5.30682703e-11
5.331170657e-11
8.207288876e-11
6.389396843e-11
6.613075764e-11
8.291975313e-11
9.323167192e-11
8.200329506e-11
8.805867497e-11
9.464430341e-11
8.502347087e-11
7.133188575e-11
9.615613722e-11
9.228906604e-11
9.921142078e-11
7.027319565e-11
9.83793392e-11
8.145831515e-11
6.024334598e-11
7.579882449e-11
7.016572641e-11
7.417133105e-11
6.703500353e-11
7.384962678e-11
7.158799324e-11
6.718423582e-11
6.944447501e-11
7.324164012e-11
6.606889257e-11
7.565215428e-11
7.38102953e-11
5.944345902e-11
9.285397283e-11
8.319199452e-11
8.380766631e-11
7.560597558e-11
8.698496045e-11
8.435319945e-11
6.251744049e-11
7.076113308e-11
7.600546182e-11
8.950639738e-11
8.33878042e-11
9.722370755e-11
8.43083276e-11
7.14348373e-11
8.941977339e-11
7.515068718e-11
8.848984419e-11
8.905736046e-11
6.515097882e-11
9.710026581e-11
7.300538804e-11
0
4.961012645e-11
5.993696653e-11
5.967161706e-11
4.935996499e-11
5.81842188e-11
7.402616165e-11
5.21839352e-11
5.442277257e-11
4.94654614e-11
4.727836582e-11
5.787743957e-11
7.055459723e-11
7.707975856e-11
0
6.490114072e-11
7.753106933e-11
6.454031575e-11
7.703419461e-11
8.993843221e-11
6.385492343e-11
7.454044589e-11
7.385654432e-11
8.344685088e-11
7.299215896e-11
8.424533649e-11
7.619177528e-11
0
0
8.066058415e-11
8.559189218e-11
8.768938384e-11
6.48253895e-11
6.164443171e-11
7.867473364e-11
6.378808326e-11
6.479783325e-11
6.057035114e-11
8.433671912e-11
8.207664461e-11
9.22601243e-11
9.542667524e-11
8.444308773e-11
8.24304137e-11
7.859710359e-11
9.402460859e-11
8.225160021e-11
8.063861124e-11
8.415225844e-11
9.202689386e-11
8.731810587e-11
8.983023663e-11
9.341035811e-11
9.248173758e-11
8.454104841e-11
8.997818011e-11
8.245666411e-11
8.878533888e-11
9.573435018e-11
9.50964104e-11
1.012344289e-10
6.612005044e-11
5.944164232e-11
8.569231127e-11
5.903126257e-11
8.26214067e-11
7.913081686e-11
7.646908512e-11
8.140298263e-11
0
7.359497755e-11
7.293923323e-11
6.553551891e-11
6.219392373e-11
6.353637398e-11
1.018164088e-10
9.048011299e-11
6.760829429e-11
6.665385969e-11
9.469889194e-11
1.029112476e-10
9.284629697e-11
9.449134843e-11
9.103539873e-11
9.984669139e-11
9.581031204e-11
8.906174364e-11
8.173182315e-11
7.10853398e-11
7.810907421e-11
8.50142961e-11
7.178460182e-11
7.387332992e-11
9.998423106e-11
2.437012946e-11
2.304417794e-11
6.887690554e-11
6.186980706e-11
7.319456942e-11
5.858593581e-11
6.851408592e-11
5.858309228e-11
5.360040846e-11
6.936541494e-11
6.706277304e-11
5.692223946e-11
7.887461957e-11
0
9.16364184e-11
6.789092982e-11
0
7.120142339e-11
7.485662076e-11
7.286269921e-11
8.912235958e-11
7.39904598e-11
7.714748628e-11
7.43057409e-11
7.59512823e-11
7.153660921e-11
6.378179813e-11
7.609189473e-11
6.999557879e-11
7.405483149e-11
8.623350605e-11
9.055638649e-11
9.468288261e-11
8.890172977e-11
9.67878163e-11
9.00147381e-11
9.439318343e-11
9.629264563e-11
9.600460843e-11
9.145940361e-11
6.753483226e-11
7.329363483e-11
6.81523729e-11
7.452193723e-11
7.019974552e-11
7.240931822e-11
7.326056685e-11
7.761171024e-11
7.858584081e-11
7.951389581e-11
7.184059399e-11
6.896746287e-11
8.331134047e-11
0
6.456523845e-11
5.507292865e-11
7.241292511e-11
8.311122119e-11
6.579753182e-11
7.023074091e-11
5.855432071e-11
7.606218098e-11
8.711812446e-11
7.91875771e-11
5.507803474e-11
6.347795059e-11
6.801895636e-11
5.46529587e-11
5.19581581e-11
7.99091151e-11
7.913750624e-11
8.397189319e-11
7.515332575e-11
8.158242785e-11
8.619399877e-11
8.033413316e-11
8.571749431e-11
6.678430981e-11
8.104142365e-11
9.146876045e-11
6.660904896e-11
7.397116747e-11
9.196219301e-11
6.876818889e-11
7.817539456e-11
9.627448861e-11
9.039067348e-11
6.81744701e-11
7.159600675e-11
6.749733012e-11
6.279702257e-11
7.159025694e-11
7.242833767e-11
0
6.690051173e-11
5.680522073e-11
7.632416427e-11
5.360007844e-11
6.916481816e-11
0
5.665847748e-11
7.515252979e-11
6.759005616e-11
5.283342692e-11
6.814253186e-11
5.757888639e-11
6.210027987e-11
7.382168621e-11
7.345260687e-11
7.726414745e-11
7.646181648e-11
6.682202623e-11
7.287631187e-11
7.002116224e-11
7.530996674e-11
6.892936874e-11
7.009682911e-11
6.783109301e-11
8.256305821e-11
6.442351152e-11
8.195735592e-11
9.259938315e-11
7.894473356e-11
0
0
8.083870025e-11
7.210253389e-11
0
8.328092433e-11
7.96352061e-11
6.746665269e-11
0
6.1938505e-11
6.006008786e-11
9.502844526e-11
8.112475115e-11
0
6.080915766e-11
7.904065314e-11
6.729805061e-11
9.175272934e-11
1.066956218e-10
9.068361415e-11
8.854336483e-11
8.940360967e-11
8.387554151e-11
7.933990729e-11
9.476118679e-11
9.104517372e-11
8.815714977e-11
9.211789608e-11
7.578993132e-11
1.012289936e-10
8.98520384e-11
2.059901733e-11
6.79974936e-11
1.005734288e-10
8.108202723e-11
7.162572258e-11
)


// ************************************************************************* //
