/*--------------------------------*- C++ -*----------------------------------*\
  =========                 |
  \\      /  F ield         | OpenFOAM: The Open Source CFD Toolbox
   \\    /   O peration     | Website:  https://openfoam.org
    \\  /    A nd           | Version:  7
     \\/     M anipulation  |
\*---------------------------------------------------------------------------*/
FoamFile
{
    version     2.0;
    format      ascii;
    class       scalarField;
    location    "2/lagrangian/coalCloud1";
    object      rDevo;
}
// * * * * * * * * * * * * * * * * * * * * * * * * * * * * * * * * * * * * * //


2000
(
0
0
0
0
0
0
0
0
0
0
0
0
0
0
0
0
0
0
0
0
0
0
0
0
0
0
0
0
0
0
0
0
0
0
0
0
0
0
0
0
0
0
0
0
0
0
0
0
0
0
0
0
0
0
0
0
0
0
0
0
0
0
0
0
0
0
0
0
0
0
0
0
0
0
0
0
0
0
0
0
0
0
0
0
0
0
0
0
0
0
0
0
0
0
0
0
0
0
0
0
0
0
0
0
0
0
0
0
0
0
0
0
0
0
0
0
0
0
0
0
0
0
0
0
0
0
0
0
0
0
0
0
0
0
0
0
0
0
0
0
0
0
0
0
0
0
0
0
0
0
0
0
0
0
0
0
0
0
0
0
0
0
0
0
0
0
0
0
0
0
0
0
0
0
0
0
0
0
0
0
0
0
0
0
0
0
0
0
0
0
0
0
0
0
0
0
0
0
0
0
0
0
0
0
0
0
0
0
0
0
0
0
0
0
0
0
0
0
0
0
0
0
0
0
0
0
0
0
0
0
0
0
0
0
0
0
0
0
0
0
0
0
0
0
0
0
0
0
0
0
0
0
0
0
0
0
0
0
0
0
0
0
0
0
0
0
0
0
0
0
0
0
0
0
0
0
0
0
0
0
0
0
0
0
0
0
0
0
0
0
0
0
0
0
0
0
0
0
0
0
0
0
0
0
0
0
0
0
0
0
0
0
0
0
0
0
0
0
0
0
0
0
0
0
0
0
0
0
0
0
0
0
0
0
0
0
0
0
0
0
0
0
0
0
0
0
0
0
0
0
0
0
0
0
0
0
0
0
0
0
0
0
0
0
0
0
0
0
0
0
0
0
0
0
0
0
0
0
0
0
0
0
0
0
0
0
0
0
0
0
0
0
0
0
0
0
0
0
0
0
0
0
0
0
0
0
0
0
0
0
0
0
0
0
0
0
0
0
0
0
0
0
0
0
0
0
0
0
0
0
0
0
0
0
0
0
0
0
0
0
0
0
0
0
0
0
0
0
0
0
0
0
0
0
0
0
0
0
0
0
0
0
0
0
0
0
0
0
0
0
0
0
0
0
0
0
0
0
0
0
0
0
0
0
0
0
0
0
0
0
0
0
0
0
0
0
0
0
0
0
0
0
0
0
0
0
0
0
0
0
0
0
0
0
0
0
0
0
0
0
0
0
0
0
0
0
0
0
0
0
0
0
0
0
0
0
0
0
0
0
0
0
0
0
0
0
0
0
0
0
0
0
0
0
0
0
0
0
0
0
0
0
0
0
0
0
0
0
0
0
0
0
0
0
0
0
0
0
0
0
0
0
0
0
0
0
0
0
0
0
0
0
0
0
0
0
0
0
0
0
0
0
0
0
0
0
0
0
0
0
0
0
0
0
0
0
0
0
0
0
0
0
0
0
0
0
0
0
0
0
0
0
0
0
0
0
0
0
0
0
0
0
0
0
0
0
0
0
0
0
0
0
0
0
0
0
0
0
0
0
0
0
0
0
0
0
0
0
0
0
0
0
0
0
0
0
0
0
0
0
0
0
0
0
0
0
0
0
0
0
0
0
0
0
0
0
0
0
0
0
0
0
0
0
0
0
0
0
0
0
0
0
0
0
0
0
0
0
0
0
0
0
0
0
0
0
0
0
0
0
0
0
0
0
0
0
0
0
0
0
0
0
0
0
0
0
0
0
0
0
0
0
0
0
0
0
0
0
0
0
0
0
0
0
0
0
0
0
0
0
0
0
0
0
0
0
0
0
0
0
0
0
0
0
0
0
0
0
0
0
0
0
0
0
0
0
0
0
0
0
0
0
0
0
0
0
0
0
0
4.730971476e-22
2.947042441e-22
1.380663238e-21
1.979327564e-21
2.250137214e-21
2.229429669e-22
1.432040672e-22
2.228341259e-22
2.459847644e-22
2.16719427e-22
2.98275338e-22
1.870769087e-22
1.265111671e-22
0
1.447389386e-22
1.817879436e-22
1.285705888e-22
2.0216811e-22
3.596308589e-21
6.00222594e-20
9.891789855e-21
2.59800678e-17
1.098811873e-19
2.804502036e-18
2.874336966e-22
2.873854323e-19
2.285213546e-20
8.956983531e-22
1.041624372e-19
2.541942245e-20
4.22715758e-17
5.583074606e-20
1.235303849e-21
2.303633705e-20
1.45247267e-24
0
0
0
0
0
0
0
0
0
0
0
0
0
0
0
0
0
0
0
0
0
0
0
0
0
0
0
2.517547601e-22
1.838183473e-22
9.515132013e-23
2.305073865e-22
7.323258148e-22
5.872102891e-22
6.546778281e-23
6.626099821e-22
5.553589092e-22
8.532075447e-23
4.067157357e-22
3.78709929e-22
2.060762005e-21
1.15331498e-20
1.291779419e-19
1.477409458e-17
6.773322521e-19
4.445164888e-21
4.933193349e-19
1.510549e-17
2.872106276e-17
8.042335762e-19
3.587515841e-20
3.660716684e-19
1.129537333e-20
0
0
0
0
0
0
0
0
0
0
0
0
0
0
0
0
0
0
0
0
0
0
0
0
0
0
4.262646659e-22
3.402193125e-22
1.910293804e-21
4.230606036e-22
4.229513893e-22
1.644720157e-24
1.397614966e-22
1.263794337e-22
3.490579216e-23
1.360097334e-22
1.373506473e-20
2.656516685e-18
2.787164534e-18
6.111060554e-19
2.914212308e-19
3.164822383e-23
6.573026594e-21
1.069835255e-21
1.686335441e-19
5.806650075e-21
1.679728912e-22
1.687713036e-21
1.153704828e-19
3.496293403e-21
1.21906364e-11
0
1.920503471e-16
2.346286124e-14
1.301950954e-11
7.730152057e-11
4.526013835e-17
9.460078662e-18
3.321473421e-14
7.451590504e-11
2.521494263e-21
0
0
0
0
0
0
0
0
0
0
0
0
0
0
0
0
0
0
0
0
0
0
0
0
0
0
0
0
0
0
0
0
0
0
0
0
0
0
6.161920831e-22
2.339439041e-22
1.197348275e-22
1.181904049e-22
5.003472394e-22
6.396932314e-22
2.257058127e-22
1.269267213e-22
6.113922649e-23
1.082349008e-22
7.698964499e-21
4.364348092e-22
4.302988672e-22
5.35111528e-22
5.9499861e-22
2.022034522e-22
3.428776828e-22
2.264931222e-22
4.412574e-22
2.189393543e-22
2.20282714e-22
1.223567476e-20
1.66826687e-17
2.903534602e-19
5.305515519e-18
2.71947627e-19
2.07892419e-21
1.053574356e-20
1.682966019e-18
3.180804563e-19
4.52371502e-19
1.800082209e-22
3.306695133e-22
1.481121894e-18
8.600026622e-19
1.556954471e-18
1.91080824e-18
3.393047533e-19
1.785028158e-17
0
0
0
0
0
0
0
0
0
0
0
0
0
0
0
0
0
0
0
0
0
0
0
0
0
4.269243549e-22
6.208711277e-23
8.041353771e-23
1.117048098e-22
7.251670438e-23
7.404004966e-23
6.187002722e-23
2.952187815e-22
1.477209908e-22
1.189559495e-22
3.575601057e-22
6.943140847e-19
1.206340564e-19
2.642903264e-19
3.852611519e-19
5.481907463e-21
6.454721923e-19
1.392038753e-20
5.80447643e-20
8.489670311e-23
2.272851126e-20
7.833831581e-23
5.216676806e-22
2.671763051e-18
4.970858435e-20
0
0
0
0
0
0
0
0
0
0
0
0
0
0
0
0
0
0
0
0
0
0
0
0
0
3.479522041e-22
2.640595877e-22
5.204569926e-23
3.075303328e-22
3.003125008e-22
4.929349075e-23
3.6732366e-22
2.831255876e-22
3.199627859e-22
1.022638028e-22
1.589682557e-22
4.354024547e-22
7.499794978e-18
3.832204569e-19
1.539300339e-19
1.612684571e-20
9.973424554e-20
7.659673738e-20
1.230772904e-21
1.127717516e-21
3.215488317e-20
1.677412629e-17
1.776370339e-19
1.069866941e-18
9.930525207e-22
2.400817227e-18
4.757119301e-11
5.559303324e-11
0
0
0
0
0
0
0
0
0
0
0
0
0
0
0
0
0
0
0
0
0
0
0
0
0
0
0
0
0
0
0
0
0
4.513592951e-24
2.780862265e-22
9.714125601e-22
2.393028765e-22
8.904209723e-22
9.405006277e-22
1.889583853e-22
1.636176041e-22
2.498432711e-22
2.168916566e-20
2.57317275e-22
1.425975208e-21
1.26440637e-21
8.77264061e-22
8.465374808e-22
7.784541274e-23
8.993415679e-22
9.298369241e-22
7.145204057e-22
9.667842575e-23
1.743812397e-20
2.777119121e-18
1.800736705e-21
3.613392409e-22
1.072240265e-18
8.52035633e-19
8.7529456e-19
1.862546529e-21
1.589717094e-18
2.968309279e-20
1.041609355e-20
1.390172153e-17
2.343986241e-21
6.586383342e-19
1.278042204e-19
1.270814135e-21
0
0
0
0
0
0
0
0
0
0
0
0
0
0
2.957981717e-24
0
0
0
0
0
0
0
0
0
0
0
0
0
1.411722506e-21
1.285842904e-22
1.381623507e-21
1.223872867e-21
1.532537652e-22
1.447902334e-22
1.5750884e-22
1.632381243e-21
3.040021738e-22
2.745467341e-22
2.738080631e-19
1.130660845e-19
6.128628735e-19
5.868665553e-15
2.343386533e-22
1.152752641e-17
4.854241509e-22
1.647675788e-20
1.117228746e-12
5.868483894e-20
1.176407687e-21
2.695120776e-17
2.179061562e-17
0
0
0
0
0
0
0
0
0
0
0
0
0
0
0
0
0
0
0
0
0
0
0
0
0
0
0
0
6.578069345e-22
6.041640761e-22
3.096899228e-22
3.737313835e-22
2.443193264e-21
2.536569484e-21
3.904232935e-22
3.709694208e-21
2.994534884e-21
5.343511396e-23
1.126532487e-22
4.981264237e-22
0
1.217220433e-22
8.039064363e-23
5.157872566e-20
1.208716879e-21
1.344195543e-17
3.124572727e-21
3.266623414e-19
6.822619976e-19
1.114923377e-20
3.142793545e-21
3.862461067e-19
1.679808088e-22
1.929340831e-19
3.494517617e-14
6.433167428e-15
1.442089307e-10
1.411652847e-16
6.279271792e-16
3.022862497e-13
7.702407955e-15
1.063584273e-16
2.337195325e-12
4.390068433e-19
2.78045895e-12
3.316973827e-16
7.076399323e-11
0
0
0
0
0
0
0
0
0
0
0
0
0
0
0
0
0
0
0
0
0
0
0
0
0
0
0
0
0
0
0
0
0
0
0
0
0
9.844565765e-23
1.169436638e-22
4.055342697e-22
4.908739088e-22
9.19759571e-23
1.216067623e-22
1.392315508e-20
1.112365033e-22
1.580448153e-21
7.983584111e-22
5.091122852e-22
5.480207551e-22
1.10499671e-20
9.224157644e-23
1.520959138e-21
1.619581208e-22
2.092588053e-21
1.492574026e-21
5.872485411e-14
1.327038417e-17
3.885127142e-21
1.378859754e-19
2.373567702e-21
3.158831427e-20
2.002569527e-18
3.27791428e-22
8.034720246e-22
6.717643601e-19
6.146696311e-19
1.82795927e-17
5.490653978e-18
7.273280192e-21
1.990416343e-19
1.337975398e-22
5.770672773e-17
4.699459735e-19
2.410674639e-20
0
0
0
0
0
0
0
0
0
0
0
0
0
0
0
0
0
0
0
0
0
0
0
0
6.347050829e-22
3.992284873e-22
1.698533178e-22
6.891963393e-22
5.605827058e-22
5.597393522e-22
1.112545355e-21
1.898584483e-22
2.94359004e-22
1.0968683e-21
1.235281021e-21
4.624666996e-22
4.146412236e-22
6.16459868e-22
4.4319271e-22
1.027223613e-21
1.924622671e-18
4.322388551e-17
1.646900445e-19
7.163901234e-20
1.959348725e-20
3.882888805e-20
8.678280824e-22
2.99214977e-17
1.888272262e-18
8.740865161e-20
9.438154946e-22
2.916378942e-20
0
0
0
0
0
0
0
0
0
0
0
0
0
0
0
0
0
0
0
0
0
0
0
0
0
0
3.046023125e-23
1.380333579e-21
2.618566402e-23
3.435664398e-22
2.324622791e-22
8.581146775e-23
2.631160307e-22
3.593811604e-23
3.803311277e-22
5.882290239e-23
4.873047606e-22
3.579559187e-22
4.818790335e-23
2.538572509e-20
1.355070505e-21
1.292655789e-18
1.847606383e-20
1.312615708e-19
5.95334749e-21
3.14605224e-21
1.592502492e-21
1.267553992e-18
5.632415165e-18
2.040439585e-20
4.666352541e-20
5.112612577e-11
3.580148539e-11
2.063253113e-11
1.119989067e-13
2.864602436e-10
1.574096307e-16
0
0
0
2.5210981e-11
0
0
0
0
0
0
0
0
0
0
0
0
1.287543843e-10
0
0
2.825127298e-10
1.488228492e-09
0
0
0
2.305556816e-10
1.488315449e-09
0
0
0
0
0
0
0
0
0
0
0
0
0
0
0
0
0
0
0
0
0
0
0
0
0
0
0
0
0
0
0
0
0
0
0
0
0
0
0
0
0
0
0
0
0
0
0
0
0
0
0
0
0
0
0
0
0
0
0
0
0
0
0
0
0
0
0
0
0
0
0
0
0
0
0
0
0
0
0
0
0
0
0
0
0
0
0
0
0
0
0
0
0
0
0
0
0
0
2.139167238e-10
0
0
0
0
0
0
0
0
0
0
5.203943095e-11
1.946814842e-11
0
0
0
0
9.619889293e-10
0
0
0
0
0
0
0
0
0
0
0
0
0
0
0
0
0
0
0
0
0
0
0
0
1.707002733e-10
0
0
7.160063183e-11
0
0
0
0
0
0
9.670066019e-11
4.312185696e-10
0
0
9.729974146e-11
0
6.429718905e-10
0
0
0
0
0
0
0
0
0
0
0
0
0
0
0
0
0
0
0
0
0
0
0
0
0
0
0
0
0
0
0
0
0
0
0
0
0
0
0
0
0
0
0
0
0
0
0
0
0
0
0
0
0
0
0
0
0
1.405468766e-17
0
0
0
0
0
0
0
0
0
0
0
0
0
4.894696618e-11
0
0
0
0
0
0
0
0
0
0
0
0
2.416178893e-11
6.612779625e-11
0
0
0
0
0
0
0
0
0
0
0
0
0
0
0
0
0
0
0
0
0
0
0
0
0
0
0
0
0
0
0
0
0
0
0
0
0
0
0
0
1.546723294e-10
0
0
0
0
0
0
0
0
0
0
0
0
0
0
0
0
0
0
0
0
0
0
0
0
0
0
0
0
0
0
0
0
0
0
0
0
0
1.215165376e-10
0
0
1.991399546e-10
0
0
0
0
0
0
0
0
0
0
0
0
0
0
0
0
0
0
0
0
0
0
0
0
0
0
0
0
0
0
0
0
0
0
0
0
1.634147786e-13
0
0
0
0
0
0
0
0
0
0
0
0
0
0
0
0
0
0
0
0
0
0
0
0
0
0
0
0
0
0
0
0
0
0
0
0
0
0
0
6.019457991e-11
0
0
0
0
0
5.150784172e-11
0
0
0
0
0
0
0
0
0
0
0
0
0
0
0
0
0
0
0
0
0
0
0
6.888804797e-11
3.236604256e-10
0
0
8.805451791e-11
0
0
0
4.99284301e-11
0
0
0
0
1.100842577e-09
0
0
0
0
0
0
0
0
0
0
0
0
0
0
0
0
0
0
0
0
0
0
)


// ************************************************************************* //
