/*--------------------------------*- C++ -*----------------------------------*\
  =========                 |
  \\      /  F ield         | OpenFOAM: The Open Source CFD Toolbox
   \\    /   O peration     | Website:  https://openfoam.org
    \\  /    A nd           | Version:  7
     \\/     M anipulation  |
\*---------------------------------------------------------------------------*/
FoamFile
{
    version     2.0;
    format      ascii;
    class       scalarField;
    location    "2/lagrangian/coalCloud1";
    object      rDry;
}
// * * * * * * * * * * * * * * * * * * * * * * * * * * * * * * * * * * * * * //


2000
(
1.092564958e-19
7.153743613e-19
1.107790139e-18
7.020526835e-19
2.688844506e-18
4.002068678e-18
1.43556174e-17
4.747448468e-19
5.84625517e-19
3.757055763e-18
0
5.719418267e-18
1.511438513e-17
5.798025492e-19
1.067324486e-18
8.708161516e-18
0
8.338662436e-17
8.452103538e-17
2.45638084e-18
1.912476352e-18
9.908451903e-18
9.012562054e-18
8.913597186e-17
1.792748681e-18
2.063579605e-18
5.168756056e-19
2.351354794e-19
1.803251724e-18
2.203713621e-18
5.605571224e-19
2.316246385e-18
4.51933991e-18
4.041031142e-18
1.518850173e-17
0
4.8748837e-19
5.479074531e-18
6.086533149e-17
1.492753544e-17
0
1.449597915e-18
1.076514354e-17
8.790231631e-17
0
6.520395751e-18
2.500362654e-18
1.351888214e-18
0
8.711933639e-19
0
1.674428258e-19
2.338497333e-18
1.55860884e-17
1.360192345e-18
4.953616373e-20
7.131394155e-19
9.529649488e-21
7.067835252e-19
9.265171515e-20
3.296202743e-16
3.286878633e-16
9.806240565e-19
3.076774763e-16
3.356271269e-16
1.930803009e-19
2.153793036e-18
9.134410685e-18
1.249881009e-19
3.087075652e-17
2.799708512e-18
6.239424832e-19
1.573316911e-17
2.005198149e-17
4.33518678e-21
1.416099963e-17
1.556690389e-16
6.07460326e-18
1.333095149e-17
4.900885751e-18
3.702616043e-16
0
1.444860741e-16
0
5.222329424e-17
1.446230737e-16
1.411949245e-16
5.037924462e-17
1.191567635e-18
1.85579699e-18
8.421937486e-19
1.403735158e-18
2.768361186e-18
5.313782534e-19
9.321273826e-19
3.198530887e-18
7.814067254e-19
1.353217547e-18
1.451349843e-16
1.244230226e-16
5.407441926e-17
1.40501521e-16
1.331110757e-16
3.984124387e-19
1.030346564e-18
5.354053638e-19
1.165240446e-18
1.918362481e-18
4.134028048e-18
7.212878596e-16
7.004035136e-16
1.538904004e-18
7.047214938e-16
6.97443381e-16
5.350994077e-18
1.030943208e-19
4.098154547e-18
3.567743709e-18
4.168004937e-19
1.485293887e-18
5.664661059e-20
2.985154951e-19
0
6.893430052e-19
2.240124916e-18
7.844502686e-16
6.381042545e-16
7.144579728e-17
9.276558575e-16
6.948504672e-16
8.757094718e-18
1.494554111e-18
7.422119461e-18
2.743073364e-19
2.998969056e-18
0
2.2971477e-18
1.87889535e-19
0
3.124413787e-18
7.744855133e-19
1.183444632e-18
2.478725156e-19
1.031254608e-18
5.300948372e-19
3.832876742e-19
1.346605114e-18
7.879249577e-19
6.693883823e-19
2.705053405e-18
1.377881629e-18
1.275791822e-18
4.543252674e-18
4.634625489e-18
1.198931081e-18
0
1.013680118e-17
3.651438879e-19
1.111067444e-18
2.965622732e-19
4.378585642e-19
9.779485852e-19
1.108214945e-18
8.131274101e-19
9.872473043e-19
3.758820205e-18
1.209561591e-18
0
0
9.077942667e-18
0
0
0
0
5.965192116e-19
0
2.298513568e-18
9.630751915e-19
1.701351664e-18
7.238037168e-18
4.062488447e-17
7.583867522e-18
0
1.015264889e-17
2.73435111e-17
2.714890203e-17
1.901434571e-17
2.237916157e-17
1.414055285e-18
3.14061928e-17
4.677821226e-18
4.498386494e-18
1.05354531e-17
2.865126076e-19
1.495957894e-18
9.504921564e-19
1.138269521e-18
0
5.238521363e-17
5.146367391e-19
5.549023495e-17
0
2.534170804e-18
0
1.812321067e-18
1.950805683e-18
3.78561855e-18
0
1.470399518e-18
3.332211141e-18
5.886312665e-17
6.60562081e-17
0
3.073557721e-18
1.635813737e-17
9.468154286e-19
1.094361524e-18
6.90468313e-19
5.338730521e-17
1.460529905e-18
3.255584795e-20
5.486382086e-17
0
1.152192439e-18
1.498149486e-18
1.391320059e-18
2.172428221e-19
3.076298187e-18
1.239344049e-17
6.125793101e-17
4.92879936e-18
1.221217223e-17
5.421033824e-18
6.308135886e-17
2.007688378e-18
0
0
1.477572717e-18
4.234568841e-19
6.044717177e-21
0
1.607020472e-21
0
7.780213278e-20
4.290247336e-19
1.264184107e-18
0
3.404740857e-19
2.45667839e-19
0
0
0
0
3.951440047e-19
0
2.140332953e-20
3.176578067e-18
4.34732796e-18
0
2.60915043e-18
1.323807538e-17
6.189352198e-19
8.219378264e-18
8.43494939e-18
0
2.843646198e-18
0
0
1.762115814e-18
2.560553544e-17
9.989639853e-19
0
4.455607201e-17
2.317701056e-17
5.5425217e-17
0
4.482163336e-17
9.584036716e-18
9.533927042e-18
0
1.161884642e-17
8.398775832e-18
0
1.581008596e-17
0
5.276823328e-18
6.287758024e-18
1.59990186e-17
1.564698602e-17
6.644949951e-18
2.954371387e-17
5.499354006e-17
4.868538572e-17
1.08199695e-17
7.212698474e-18
7.739031238e-17
2.680834813e-18
1.029620281e-17
6.07521299e-18
6.492852287e-18
1.591453819e-17
0
0
6.411947348e-19
4.975554126e-19
9.685354809e-19
0
0
5.160470753e-18
0
2.547462536e-18
0
1.132821042e-18
1.432759512e-17
0
3.361341194e-18
1.488034388e-17
1.674937015e-17
1.682159815e-17
0
1.274860351e-18
8.159030763e-18
3.744085886e-18
1.262460174e-18
0
0
7.069357403e-17
7.894960746e-18
4.726495842e-18
0
4.2005532e-17
9.65920136e-19
1.307934319e-18
2.838611933e-18
7.019819874e-19
4.364882024e-19
5.641304634e-18
4.852571223e-19
1.045326891e-18
2.300856249e-18
5.735366526e-17
0
2.806766168e-17
0
8.882471131e-17
3.203785058e-17
1.293538715e-18
1.06526798e-18
3.935607694e-18
4.678000114e-18
1.706664571e-18
6.049747371e-19
1.372262298e-18
2.895515333e-18
4.868536282e-19
2.970800846e-17
3.871277018e-17
7.662643156e-17
1.021266965e-16
6.477104702e-17
2.05295958e-17
1.069335487e-18
1.404957909e-18
0
3.119429668e-19
5.167256521e-18
1.942775831e-17
1.49315522e-18
1.129807167e-18
1.071491658e-18
1.050369361e-18
3.324260412e-17
0
0
0
2.419062067e-18
5.860314095e-19
5.103141269e-18
9.258318687e-18
1.256519284e-17
4.51940418e-18
1.543481244e-18
1.175990872e-17
9.727499346e-18
1.225400371e-17
5.061738251e-17
1.021373093e-18
7.285718146e-18
2.37993375e-17
9.48430211e-19
6.09730963e-19
1.06633437e-18
1.716142857e-18
8.057028309e-19
7.335809965e-19
7.357796679e-18
4.773918296e-19
7.204168609e-19
1.450373256e-18
5.255410043e-18
8.087376026e-19
6.419303739e-19
2.84671696e-18
1.065105773e-18
1.518537283e-18
6.886228976e-18
8.738425657e-19
8.239038014e-19
3.349722455e-18
3.626098775e-18
1.621758705e-18
2.190670161e-18
4.88773259e-19
7.541030734e-19
7.445083965e-19
1.370988705e-18
5.738532554e-19
5.952572299e-19
9.112854087e-19
7.580660239e-19
6.83789035e-19
8.336599557e-19
2.007184779e-19
5.671848213e-19
0
8.515953642e-19
2.764150188e-21
0
7.2851846e-18
2.887932684e-18
1.171803411e-18
3.630434765e-18
6.783576219e-19
8.841606494e-20
2.03357216e-18
0
0
4.189971948e-19
6.918099163e-19
4.474209904e-19
3.344204306e-18
5.065754092e-18
1.017911137e-18
4.350519657e-19
1.496919829e-18
2.192751078e-18
2.379887365e-19
3.038747407e-19
1.011624859e-19
1.697163846e-19
0
0
0
0
0
0
1.365659746e-17
8.83836614e-18
2.796828335e-18
2.786673857e-18
3.535403007e-19
8.82693824e-18
1.135356093e-18
2.307910389e-18
8.725847586e-18
1.934946037e-18
2.671766096e-19
1.032568509e-18
0
8.172825944e-19
1.135322779e-17
1.468961089e-18
5.000724953e-18
7.283643906e-19
1.943102959e-18
8.712321143e-19
2.283513311e-17
2.21762436e-17
2.218729495e-17
6.767827561e-18
2.320457396e-17
2.026058076e-16
3.78577331e-18
7.483450891e-17
0
0
4.114548855e-18
7.087045423e-19
0
3.387258784e-18
2.22760938e-17
6.311153735e-18
2.23607835e-17
2.249424731e-17
1.947013999e-16
6.801640173e-17
6.655907429e-17
6.347094701e-17
0
5.960771825e-18
0
0
3.568287122e-18
6.234311521e-17
1.28563688e-16
7.533202173e-17
5.5342505e-17
0
7.722513434e-17
3.58578812e-19
0
2.560851289e-18
0
0
4.718208539e-18
7.72826805e-18
0
2.970382367e-17
3.755375484e-17
1.039308967e-16
1.440853924e-17
6.097219645e-17
2.820255902e-16
6.12627196e-17
7.497140181e-17
0
0
7.778984977e-17
0
0
0
4.423678968e-17
1.96031732e-17
8.017995058e-17
4.631887679e-17
4.624676626e-17
4.406654199e-17
7.888934054e-17
7.029734534e-17
9.9422637e-19
5.676707284e-17
8.758196477e-17
6.567104191e-17
8.435184499e-17
7.383510716e-17
7.186309129e-17
5.741789068e-17
4.49857768e-17
4.451537482e-17
4.752934641e-17
8.181164462e-17
0
0
0
0
7.49110318e-19
0
0
3.547685884e-19
1.19478995e-15
0
2.662547854e-18
0
0
2.350038875e-16
1.006337329e-18
0
1.401171592e-17
0
8.640782086e-19
4.927141455e-18
4.236295062e-18
0
7.889892075e-18
1.238450899e-15
3.241098523e-17
1.291800814e-15
3.023225251e-19
1.277770887e-17
0
7.303983102e-17
3.955775326e-17
0
1.350610087e-16
4.198460093e-18
7.539851462e-17
7.00356006e-17
1.377361997e-16
1.393418309e-18
7.445205392e-19
7.405883999e-19
1.173568381e-18
1.38149747e-18
1.475328624e-16
1.297409507e-18
1.461321013e-18
4.412597078e-19
1.5994495e-18
1.469985204e-18
9.865064475e-19
1.19217533e-18
1.721079218e-18
1.135754215e-18
1.333892876e-16
2.455191902e-18
7.300959213e-17
1.181613949e-16
1.404653917e-16
4.907055293e-18
3.779612414e-18
7.325444517e-17
7.416232944e-19
9.730601817e-20
9.73052665e-19
9.892027832e-19
1.036294263e-18
4.986220239e-19
5.698988298e-19
4.200034703e-19
1.325863013e-16
1.310671829e-16
0
6.233326278e-19
2.059912462e-19
4.686143803e-19
1.302999333e-16
5.372364568e-18
0
0
0
1.791332286e-19
8.342531306e-19
6.146148807e-19
0
1.051926314e-18
3.414484198e-19
4.16159194e-18
0
3.98180376e-19
7.660273227e-19
0
0
3.220045483e-17
5.870830694e-19
0
1.849297533e-18
3.958656248e-17
3.005594268e-17
0
6.140653183e-17
3.335305641e-19
2.234838573e-17
1.740766418e-17
1.320395394e-17
0
2.648529251e-17
1.057438099e-17
0
2.675813305e-17
1.569652215e-17
9.053062134e-16
1.037318802e-16
0
3.50274758e-18
3.427462739e-18
3.553174527e-18
2.33029023e-18
9.956385545e-18
4.256618546e-18
3.633512896e-18
3.72464247e-18
2.91186059e-18
6.743202265e-19
6.663923739e-19
1.584202362e-18
6.418186604e-17
1.753780484e-18
1.325946906e-16
6.197523609e-17
4.891670663e-17
0
3.838078657e-18
3.513182132e-18
1.738862173e-18
1.181776597e-18
1.222099599e-18
5.430388286e-19
3.907929361e-19
7.095258434e-19
1.739984879e-18
6.033497488e-17
1.095871816e-17
4.69493126e-17
1.237123181e-16
1.444489975e-18
2.56310091e-18
3.453123019e-19
5.744009322e-18
6.411099291e-19
1.740748562e-18
7.387238448e-18
1.773771001e-19
1.041720617e-18
0
1.666219413e-18
0
2.466576025e-18
4.202275303e-17
8.325022216e-17
1.081126352e-17
3.08990137e-18
3.801675495e-18
1.814521249e-19
1.870056581e-18
4.193650481e-18
3.838750487e-19
1.623306136e-18
5.728705304e-18
1.574516013e-17
2.515149874e-15
1.231620875e-16
1.30427326e-16
3.648301264e-16
8.079350544e-18
4.496764471e-18
2.342539582e-18
8.044881005e-18
7.40106361e-18
0
1.169054106e-18
1.637893057e-17
0
4.255517954e-19
1.494510542e-17
1.550886195e-17
8.911284302e-19
1.147376517e-16
3.550881492e-16
3.485273698e-16
6.236731309e-18
7.907418834e-18
6.803587184e-18
7.786840205e-18
8.333883586e-18
6.514036017e-18
9.989981785e-19
1.832270467e-17
1.797798539e-17
1.530557817e-17
1.545785183e-17
1.07378832e-18
0
2.49070317e-18
0
1.355468957e-18
3.694962831e-18
8.186175624e-18
4.444051329e-18
6.836530103e-16
7.074683634e-16
3.924372662e-18
7.015636637e-16
5.625792051e-18
0
5.717299589e-18
6.083257213e-19
5.815230043e-18
0
2.041593176e-17
8.479254697e-16
4.105730499e-18
5.948856478e-16
6.642121014e-16
1.21486279e-18
1.444238039e-17
3.277122888e-17
0
0
2.910371177e-17
2.33117534e-17
0
1.792983635e-19
3.193522175e-17
1.140648608e-17
5.238489223e-19
2.128067506e-17
1.178680678e-14
0
1.169348869e-14
0
6.041174783e-18
1.064100028e-14
7.380930833e-15
3.032530734e-15
8.421181981e-15
1.406712963e-14
1.048003504e-14
5.148190043e-15
4.668559862e-15
1.388903444e-14
4.064194814e-15
8.057717656e-15
9.472851342e-15
5.467042201e-15
3.559796138e-15
2.242690071e-14
8.099134916e-15
9.818083852e-15
2.492401644e-15
1.70084427e-11
1.426398811e-11
3.688125227e-11
3.372473297e-11
4.54381819e-11
1.285775167e-11
1.020414789e-11
1.218531595e-11
1.346290921e-11
1.271069151e-11
1.465811499e-11
1.227241895e-11
9.600606434e-12
0
1.009134385e-11
1.134939922e-11
9.631874132e-12
1.192429516e-11
4.08636316e-11
9.618643017e-11
3.600767921e-11
2.070305659e-10
1.242571104e-10
1.862915874e-10
1.209014574e-11
1.429337856e-10
7.71536977e-11
2.3451267e-11
1.378776684e-10
8.049958094e-11
2.295178125e-10
1.079437061e-10
2.226060393e-11
7.279363913e-11
0
9.370113548e-16
2.830308943e-16
0
4.447980497e-18
4.164319721e-17
1.007322561e-17
5.178651122e-17
0
0
1.341376432e-14
3.219270866e-15
5.933141653e-15
4.104366502e-15
2.584162929e-15
1.466418649e-14
6.440318209e-15
1.148193734e-14
1.507028236e-14
0
3.353152921e-15
5.615808411e-15
8.295270797e-15
1.581678286e-14
1.051014312e-14
8.940175298e-15
7.801044223e-15
2.595093254e-14
1.29452805e-11
1.121249836e-11
8.441484065e-12
1.243591156e-11
2.202458272e-11
1.997721977e-11
6.698915008e-12
2.106050644e-11
1.952912715e-11
7.873584308e-12
1.688497296e-11
1.59873588e-11
3.410118212e-11
6.261096405e-11
1.20707886e-10
1.754985948e-10
1.666332348e-10
4.465603643e-11
1.04875055e-10
1.589683469e-10
1.951292995e-10
1.589020069e-10
0
1.509714664e-10
6.340411315e-11
3.883261907e-15
3.753607174e-15
0
1.099964915e-14
5.92188623e-15
1.050275473e-14
5.812984872e-15
8.64578007e-15
1.021420042e-15
9.90342087e-16
2.747345088e-15
1.212129039e-14
1.335215426e-14
1.454253946e-14
2.352725985e-14
5.807072303e-15
9.718362745e-15
5.896898198e-15
0
1.516583863e-14
1.047566226e-15
1.577653747e-14
2.607534406e-15
2.037360145e-14
2.746751897e-15
1.832712328e-14
1.746683349e-11
1.63859753e-11
3.324787422e-11
1.741891729e-11
1.74084935e-11
0
8.583551051e-12
9.239698732e-12
4.8285447e-12
9.561777949e-12
6.678736455e-11
1.991203285e-10
1.960692805e-10
1.623471941e-10
1.26678006e-10
3.765057314e-12
5.692607321e-11
2.636993647e-11
1.266051357e-10
4.987970364e-11
4.932322778e-12
2.872132208e-11
1.195699031e-10
4.367065185e-11
0
0
0
0
0
0
1.758348539e-10
0
7.08849818e-12
0
3.845655797e-11
1.672750064e-17
1.76043304e-17
2.180767381e-17
3.581908687e-17
4.202297074e-15
2.285455824e-17
1.425899406e-18
4.858913473e-15
2.159164851e-15
4.543415887e-17
2.110798306e-15
0
2.328139657e-17
1.04288564e-15
0
3.477256638e-17
1.855170529e-17
0
1.185444879e-14
7.230645366e-15
7.102418414e-15
6.27120584e-15
1.526926746e-14
8.768207716e-15
4.472617973e-17
4.7007576e-15
6.069209337e-15
7.946583116e-15
1.150670168e-14
1.358015433e-14
1.288786853e-14
3.821186749e-15
4.979075783e-15
1.057695647e-14
1.090270108e-14
5.68354151e-15
1.236995493e-14
7.819554669e-15
1.585137076e-11
1.33555462e-11
9.335667579e-12
9.263318965e-12
1.448932939e-11
1.605803295e-11
1.314644802e-11
9.534458656e-12
6.744871848e-12
8.51278703e-12
5.074001019e-11
1.754131746e-11
1.741785632e-11
1.913387187e-11
1.864868995e-11
1.123264626e-11
1.419471454e-11
1.315049441e-11
1.704251206e-11
1.148052588e-11
1.299229996e-11
1.012978382e-10
1.939459027e-10
1.402299579e-10
8.809327931e-11
1.358331297e-10
4.535387689e-11
6.358033313e-11
1.806838853e-10
1.989963774e-10
1.36605539e-10
1.154095056e-11
1.454771461e-11
1.844608278e-10
1.663061168e-10
1.797209791e-10
1.671333755e-10
1.620616183e-10
1.890332129e-10
3.017543233e-17
0
0
3.677373261e-15
9.687407409e-16
2.655566967e-17
0
5.766256183e-15
2.284290388e-15
6.934840774e-15
2.600101063e-15
1.725835219e-15
0
8.100151061e-15
8.748888308e-15
1.17060931e-14
1.795237467e-14
7.565374606e-15
1.95716857e-14
3.423717888e-15
8.61469573e-15
1.197404672e-14
6.460247594e-15
1.194658401e-14
1.307212301e-14
1.741939298e-11
6.905370765e-12
7.576438472e-12
9.750011237e-12
7.178025374e-12
7.745977144e-12
6.258704121e-12
1.379599614e-11
1.036539458e-11
9.316841605e-12
1.704271395e-11
1.715160291e-10
1.228911803e-10
1.516135919e-10
1.649662335e-10
4.411430887e-11
1.74924343e-10
8.194263734e-11
1.139309612e-10
6.859871879e-12
8.322081279e-11
7.092204338e-12
1.581759437e-11
0
1.044650441e-10
7.458516949e-18
7.285077166e-18
2.127017981e-17
2.162113995e-17
5.528633904e-15
4.431821062e-17
4.301546645e-17
5.921489103e-15
5.744183037e-17
4.717383276e-15
6.573769712e-15
1.556906039e-16
1.937733412e-16
3.014492409e-17
0
1.688076457e-14
3.908895523e-15
3.881549022e-15
1.662957203e-14
1.049708849e-14
1.079406884e-14
1.331036192e-14
2.200412565e-16
1.234330498e-14
1.033154001e-14
1.605479306e-11
1.4023959e-11
5.987745576e-12
1.512830206e-11
1.493908807e-11
5.811510188e-12
1.638529315e-11
1.460201808e-11
1.551451299e-11
8.718846337e-12
1.074311097e-11
1.754632451e-11
9.501856235e-11
1.763351873e-10
1.273291941e-10
6.812708892e-11
1.165623581e-10
1.135848082e-10
2.779413564e-11
2.703300717e-11
8.741536713e-11
1.982543891e-10
1.271166801e-10
1.645290778e-10
2.38239284e-11
1.762488989e-10
0
0
8.616611438e-15
3.564875756e-17
7.876474853e-16
2.739127233e-17
2.215351748e-17
5.68812144e-18
1.242306925e-17
6.281290181e-18
2.288519189e-18
5.814735026e-18
3.965375384e-15
0
2.077200438e-17
0
1.084572583e-14
6.650949259e-15
5.918631062e-15
1.314978983e-14
0
1.032809603e-14
7.163715792e-15
1.52143199e-14
4.357043276e-15
4.439874109e-15
7.840394576e-15
7.380828206e-15
1.334846821e-14
1.251188311e-14
3.131393703e-15
2.31677984e-14
2.372414173e-14
0
1.014051832e-14
0
1.350468579e-11
2.556471516e-11
1.258574764e-11
2.463680576e-11
2.513220818e-11
1.018932863e-11
1.071636874e-11
1.313056825e-11
6.259530487e-11
1.329496885e-11
2.898253472e-11
2.755990738e-11
2.259653801e-11
2.249203777e-11
7.502361191e-12
2.076658701e-11
2.111533045e-11
2.113749124e-11
8.350022172e-12
6.023334993e-11
1.981680104e-10
2.771313949e-11
1.439507085e-11
0
1.86840928e-10
1.715036805e-10
2.720685454e-11
1.771514615e-10
7.638845978e-11
6.169133158e-11
1.853846962e-10
3.236238413e-11
1.613708419e-10
1.150271646e-10
2.365714274e-11
1.063499305e-14
1.027422457e-14
0
0
0
0
0
7.152411457e-15
0
0
1.346843592e-15
1.273023927e-15
1.248623382e-15
8.586740413e-15
0
1.356803312e-14
1.483166044e-14
1.966607417e-14
7.032635699e-15
5.386821272e-15
1.169765353e-14
5.629431085e-15
2.920547263e-15
3.726777973e-14
3.894241345e-15
7.833060424e-15
1.847175557e-14
6.724727631e-15
3.006992667e-11
1.057875464e-11
2.948325267e-11
2.906269423e-11
1.031928968e-11
1.004059148e-11
1.038547226e-11
3.115064456e-11
1.547859828e-11
1.256260655e-11
0
1.515498284e-10
1.670077937e-10
0
1.322357888e-11
1.642627358e-10
1.563889186e-11
6.753130914e-11
0
1.026074622e-10
2.443516561e-11
2.119043436e-10
2.468482612e-10
0
0
1.452320846e-17
0
5.080681531e-18
2.436863543e-17
7.846130144e-18
0
1.139453364e-17
2.153877199e-15
1.984091954e-15
2.734787275e-16
2.211845873e-15
2.119198459e-15
0
4.800827293e-15
1.201539704e-14
9.924721199e-15
7.845740339e-15
7.771752411e-15
4.499740019e-15
1.216760795e-14
3.449923576e-15
3.07001046e-15
5.446283624e-15
1.119220109e-14
6.595825281e-15
4.096436065e-15
2.045412443e-11
1.964475239e-11
1.563879018e-11
1.615096418e-11
3.373942428e-11
3.427039163e-11
1.65268479e-11
3.903599632e-11
3.601030981e-11
6.390915773e-12
8.538498465e-12
1.654093532e-11
0
8.932623493e-12
7.144016042e-12
1.013048002e-10
2.551791105e-11
1.096131883e-10
3.800012091e-11
1.408512833e-10
1.559077148e-10
5.687409371e-11
3.632693349e-11
1.42833891e-10
1.009602888e-11
1.298338076e-10
0
7.914502296e-12
0
0
0
0
0
1.669699377e-10
0
0
0
1.504753185e-10
0
1.175746023e-14
1.187909813e-14
4.474896217e-17
1.538260112e-14
1.179836762e-14
3.093985295e-17
1.086498464e-14
1.088196298e-14
6.053278845e-15
6.699262339e-17
1.086564514e-14
5.928692705e-15
4.494242357e-17
3.812668571e-17
6.47147917e-15
6.94089045e-17
6.167670769e-17
0
7.029297173e-19
8.129811994e-18
3.592270537e-17
1.626633521e-14
5.387757421e-15
6.791011341e-15
2.821658729e-15
3.528991724e-15
1.637747224e-14
2.454945829e-14
1.313330788e-14
1.904886272e-14
7.185031116e-15
1.326836414e-14
1.851002004e-14
9.691447852e-15
0
1.043915331e-14
6.595885232e-15
8.76213744e-12
9.017507662e-12
1.682837238e-11
1.838132768e-11
8.491254537e-12
9.186264777e-12
6.813385366e-11
9.689180717e-12
3.312468205e-11
2.878972116e-11
1.995349514e-11
2.065486303e-11
6.448833467e-11
8.981421406e-12
3.167137193e-11
1.096503906e-11
3.341535055e-11
3.134014101e-11
0
1.66180338e-10
6.674528671e-11
1.165926574e-10
3.412918169e-11
8.197230274e-11
1.636279416e-10
1.599955944e-11
2.401180505e-11
1.793092824e-10
1.731778972e-10
1.99971126e-10
9.487716083e-11
5.316604244e-11
1.542755087e-10
1.021648886e-11
2.387462805e-10
1.599484982e-10
6.604931458e-11
2.516379475e-17
3.654502796e-17
2.638922631e-17
4.045062932e-15
6.874841919e-16
7.767676639e-17
0
1.378514324e-17
0
3.245057241e-17
8.264141323e-18
4.422233199e-15
1.793867559e-14
4.079131429e-15
4.502815265e-15
6.018050798e-15
2.592408722e-14
1.354335005e-14
3.898003723e-16
1.542373543e-14
7.663800874e-15
1.293379844e-14
5.834112282e-15
1.539862097e-14
1.948301486e-11
1.489061609e-11
1.074702251e-11
2.021098306e-11
1.830461396e-11
1.825462155e-11
2.415268787e-11
1.141801437e-11
1.670245339e-11
2.470597255e-11
2.905615843e-11
1.647228733e-11
1.579191968e-11
1.839808246e-11
1.620396734e-11
2.298842126e-11
1.773287011e-10
1.956063292e-10
1.241331398e-10
1.152221022e-10
7.831635314e-11
9.692111491e-11
1.638117498e-11
2.248882936e-10
1.680825862e-10
1.06004463e-10
1.781301843e-11
0
2.495627415e-17
2.649484516e-17
1.741004782e-17
1.116673931e-17
0
0
2.27745923e-15
0
0
1.697760302e-17
0
3.438565815e-17
5.846749068e-18
3.263428353e-15
1.023050517e-14
6.287303165e-15
7.379800404e-15
7.549043211e-15
1.244096112e-14
5.319075347e-15
3.994072558e-15
1.242027783e-14
3.262514739e-15
1.008147123e-14
1.009583209e-14
0
4.46142706e-12
3.049927604e-11
4.045483353e-12
1.576215924e-11
1.411103264e-11
8.014567861e-12
1.502635491e-11
4.955469842e-12
1.658053413e-11
6.538876584e-12
1.863175767e-11
1.61400835e-11
5.928136962e-12
9.097000026e-11
2.726069598e-11
2.130147163e-10
8.059689722e-11
1.143928385e-10
5.089325124e-11
4.139449888e-11
3.118223398e-11
1.874195754e-10
1.318559231e-10
7.837570491e-11
9.991401647e-11
0
0
0
1.863125032e-10
0
2.747741864e-10
0
0
0
0
0
0
0
0
0
0
0
0
0
0
0
0
0
0
0
0
0
0
0
0
0
0
0
0
0
0
0
0
0
0
0
0
0
0
0
0
0
0
0
0
0
0
0
0
0
0
0
0
0
0
0
0
0
0
0
0
0
0
0
0
0
0
0
0
0
0
0
0
0
0
0
0
0
0
0
0
0
0
0
0
0
0
0
0
0
0
0
0
0
0
0
0
0
0
0
0
0
0
0
0
0
0
0
0
0
0
0
0
0
0
0
0
0
0
0
0
0
0
0
0
0
0
0
0
0
0
0
0
0
0
0
0
0
0
0
0
0
0
0
0
0
0
0
0
0
0
0
0
0
0
0
0
0
0
0
0
0
0
0
0
0
0
0
0
0
0
0
0
0
0
0
0
0
0
0
0
0
0
0
0
0
0
0
0
0
0
0
0
0
0
0
0
0
0
0
0
0
0
0
0
0
0
0
0
0
0
0
0
0
0
0
0
0
0
0
0
0
0
0
0
0
0
0
0
0
0
0
0
0
0
0
0
0
0
0
0
0
0
0
0
0
0
0
0
0
0
0
0
0
0
0
0
0
0
0
0
0
0
0
0
0
0
0
0
0
0
0
0
0
0
0
0
0
0
0
0
0
0
0
0
0
0
0
0
0
0
0
0
0
0
0
0
0
0
0
0
0
0
0
0
0
0
0
0
0
0
0
0
0
0
0
0
0
0
0
0
0
0
0
0
0
0
0
0
0
0
0
0
0
0
0
0
0
0
0
0
0
0
0
0
0
0
0
0
0
0
0
0
0
0
0
0
0
0
0
0
0
0
0
0
0
0
0
0
0
0
0
0
0
0
0
0
0
0
0
0
0
0
0
0
0
0
0
0
0
0
0
0
0
0
0
0
0
0
0
0
0
0
0
0
0
0
0
0
0
0
0
0
0
0
0
0
0
0
0
0
0
0
0
0
0
0
0
0
0
0
0
0
0
0
0
0
0
0
0
0
0
0
0
0
0
0
0
0
0
0
0
0
0
0
0
0
0
0
0
0
0
0
0
0
0
0
0
0
0
0
0
0
0
0
0
0
0
0
0
0
0
0
0
0
0
0
0
0
0
0
0
0
0
)


// ************************************************************************* //
