/*--------------------------------*- C++ -*----------------------------------*\
  =========                 |
  \\      /  F ield         | OpenFOAM: The Open Source CFD Toolbox
   \\    /   O peration     | Website:  https://openfoam.org
    \\  /    A nd           | Version:  7
     \\/     M anipulation  |
\*---------------------------------------------------------------------------*/
FoamFile
{
    version     2.0;
    format      ascii;
    class       scalarField;
    location    "2/lagrangian/coalCloud1";
    object      rho;
}
// * * * * * * * * * * * * * * * * * * * * * * * * * * * * * * * * * * * * * //


2000
(
1029.999681
1029.999317
1029.999164
1029.999246
1029.99926
1029.999289
1029.999231
1029.999518
1029.999395
1029.999542
1029.999423
1029.999575
1029.999198
1029.99947
1029.999191
1029.999134
1029.998491
1029.999417
1029.99948
1029.999259
1029.999544
1029.999249
1029.999297
1029.998917
1029.999661
1029.999337
1029.999309
1029.999553
1029.999469
1029.999386
1029.999375
1029.999361
1029.999312
1029.999118
1029.999399
1029.999568
1029.999494
1029.999198
1029.99946
1029.999492
1029.999592
1029.999601
1029.999362
1029.999352
1029.999492
1029.999064
1029.999122
1029.999316
1029.999594
1029.999701
1029.999559
1029.999403
1029.999106
1029.999579
1029.999483
1029.999492
1029.999662
1029.999561
1029.999252
1029.999512
1029.999628
1029.999365
1029.999259
1029.999386
1029.999304
1029.999224
1029.999466
1029.998847
1029.99945
1029.999166
1029.999457
1029.999298
1029.999249
1029.999323
1029.999475
1029.999665
1029.999536
1029.999238
1029.999134
1029.999118
1029.998904
1029.999405
1029.999398
1029.998835
1029.998989
1029.999253
1029.998657
1029.999358
1029.999565
1029.998888
1029.9994
1029.999318
1029.998812
1029.999342
1029.999442
1029.999243
1029.999354
1029.999336
1029.999318
1029.999344
1029.998842
1029.999502
1029.999347
1029.999417
1029.999452
1029.999327
1029.999332
1029.999105
1029.999305
1029.999276
1029.99901
1029.999215
1029.99904
1029.999405
1029.999268
1029.999553
1029.999607
1029.999168
1029.999309
1029.999249
1029.999445
1029.999211
1029.999465
1029.999275
1029.999296
1029.999324
1029.999296
1029.999417
1029.999326
1029.99864
1029.999095
1029.999511
1029.99949
1029.999344
1029.999418
1029.998979
1029.999514
1029.999365
1029.99978
1029.999362
1029.99929
1029.999285
1029.999472
1029.998936
1029.999509
1029.999639
1029.999229
1029.999276
1029.999425
1029.999394
1029.9992
1029.999208
1029.999262
1029.999165
1029.999042
1029.999633
1029.99924
1029.999541
1029.999359
1029.999588
1029.999583
1029.999311
1029.999258
1029.999467
1029.999276
1029.999298
1029.999043
1029.999549
1029.999453
1029.999324
1029.999318
1029.999384
1029.999251
1029.9994
1029.999374
1029.999633
1029.999301
1029.999326
1029.999447
1029.999533
1029.998954
1029.999457
1029.999402
1029.999121
1029.998808
1029.999057
1029.999372
1029.999175
1029.999312
1029.99914
1029.99953
1029.999366
1029.998982
1029.999463
1029.99904
1029.999241
1029.999207
1029.999646
1029.999307
1029.999476
1029.999368
1029.999322
1029.99934
1029.999072
1029.999384
1029.999438
1029.999339
1029.999036
1029.999383
1029.999414
1029.999468
1029.999272
1029.99839
1029.999151
1029.99904
1029.999336
1029.999401
1029.999436
1029.999567
1029.999121
1029.999447
1029.999299
1029.999769
1029.999739
1029.999349
1029.999456
1029.99967
1029.999554
1029.999278
1029.999608
1029.999198
1029.999544
1029.999366
1029.999193
1029.999286
1029.999675
1029.999554
1029.999223
1029.999389
1029.999533
1029.999629
1029.999486
1029.99966
1029.999568
1029.999621
1029.999474
1029.999644
1029.999541
1029.999574
1029.999494
1029.999677
1029.998794
1029.999366
1029.999646
1029.999588
1029.999583
1029.999077
1029.999577
1029.999638
1029.999614
1029.999637
1029.999564
1029.999516
1029.99938
1029.999634
1029.999208
1029.999543
1029.99957
1029.998792
1029.999662
1029.999392
1029.999298
1029.999468
1029.99918
1029.999391
1029.998938
1029.999409
1029.999326
1029.999195
1029.999027
1029.999148
1029.999239
1029.999099
1029.999274
1029.999173
1029.999241
1029.998688
1029.999512
1029.999116
1029.999087
1029.99924
1029.999345
1029.999572
1029.99933
1029.999188
1029.999198
1029.999231
1029.999321
1029.999184
1029.998999
1029.999169
1029.998712
1029.999604
1029.999358
1029.99943
1029.999218
1029.999535
1029.999388
1029.999045
1029.999367
1029.999091
1029.999172
1029.999377
1029.99948
1029.999327
1029.999336
1029.999176
1029.999371
1029.998945
1029.999645
1029.999223
1029.99915
1029.999335
1029.999463
1029.999183
1029.999376
1029.999016
1029.999543
1029.999175
1029.99958
1029.998792
1029.999199
1029.999249
1029.999419
1029.999425
1029.999509
1029.9989
1029.999527
1029.999483
1029.999426
1029.999489
1029.999377
1029.999187
1029.998016
1029.998761
1029.9989
1029.999264
1029.999265
1029.999321
1029.999204
1029.999124
1029.999449
1029.999336
1029.999326
1029.999437
1029.999211
1029.999358
1029.999336
1029.999212
1029.999796
1029.999194
1029.999274
1029.999074
1029.999642
1029.999619
1029.999089
1029.99909
1029.999197
1029.999277
1029.999283
1029.999274
1029.999152
1029.999579
1029.999109
1029.999641
1029.999431
1029.999582
1029.999088
1029.99872
1029.999056
1029.999195
1029.99938
1029.999324
1029.99926
1029.999513
1029.999344
1029.999285
1029.998713
1029.99906
1029.999289
1029.999639
1029.999536
1029.998816
1029.9995
1029.999526
1029.999135
1029.999568
1029.999213
1029.999279
1029.999227
1029.999313
1029.999368
1029.999523
1029.999416
1029.998991
1029.999119
1029.999438
1029.999557
1029.999481
1029.99927
1029.999255
1029.998849
1029.99954
1029.999419
1029.999553
1029.999459
1029.999551
1029.999314
1029.998991
1029.999248
1029.999597
1029.999484
1029.999683
1029.999374
1029.999563
1029.999332
1029.999522
1029.999693
1029.99905
1029.999413
1029.999138
1029.999286
1029.999527
1029.99954
1029.999618
1029.999314
1029.999569
1029.99902
1029.999151
1029.999316
1029.999462
1029.999188
1029.999349
1029.999397
1029.999076
1029.999504
1029.999568
1029.999287
1029.999397
1029.999249
1029.999284
1029.99919
1029.999562
1029.999545
1029.999329
1029.999152
1029.999434
1029.999116
1029.999495
1029.99905
1029.999392
1029.999448
1029.999414
1029.999033
1029.99946
1029.999241
1029.99937
1029.999196
1029.999127
1029.999261
1029.999064
1029.999078
1029.99879
1029.999586
1029.999432
1029.999203
1029.999425
1029.999467
1029.999291
1029.999286
1029.999397
1029.999168
1029.999306
1029.999523
1029.999004
1029.999282
1029.999003
1029.999459
1029.999494
1029.999102
1029.999193
1029.999172
1029.999456
1029.999226
1029.999428
1029.999368
1029.999274
1029.999487
1029.999708
1029.998856
1029.999088
1029.999734
1029.999042
1029.999009
1029.999296
1029.999355
1029.999324
1029.999534
1029.999418
1029.999327
1029.999414
1029.999363
1029.999173
1029.999288
1029.999248
1029.999395
1029.999036
1029.999302
1029.999416
1029.99909
1029.999043
1029.998922
1029.998913
1029.999463
1029.999411
1029.999082
1029.999038
1029.999366
1029.998718
1029.999034
1029.998755
1029.999408
1029.999292
1029.999226
1029.999256
1029.999158
1029.999472
1029.999198
1029.999462
1029.999499
1029.999384
1029.999391
1029.999581
1029.999294
1029.99947
1029.999384
1029.999262
1029.999498
1029.999203
1029.999449
1029.999264
1029.999402
1029.999283
1029.999155
1029.999413
1029.999311
1029.999564
1029.999746
1029.999507
1029.999302
1029.999733
1029.999361
1029.999384
1029.999361
1029.998738
1029.999241
1029.998795
1029.99904
1029.999619
1029.99916
1029.999342
1029.999104
1029.999603
1029.999364
1029.999324
1029.999167
1029.99911
1029.999468
1029.999308
1029.9835
1029.999036
1029.999451
1029.998612
1029.999056
1029.999179
1029.99914
1029.999111
1029.99961
1029.999176
1029.999374
1029.999494
1029.999205
1029.999363
1029.999514
1029.999143
1029.99904
1029.99948
1029.999227
1029.999443
1029.99929
1029.999229
1029.999176
1029.999323
1029.999346
1029.999595
1029.999575
1029.999184
1029.9992
1029.999033
1029.999581
1029.999728
1029.999429
1029.999516
1029.999199
1029.999652
1029.999469
1029.999335
1029.999347
1029.999569
1029.999436
1029.999281
1029.999485
1029.999349
1029.999633
1029.999706
1029.999299
1029.9995
1029.99929
1029.999402
1029.999453
1029.999614
1029.999271
1029.999306
1029.999136
1029.99949
1029.99929
1029.999353
1029.99946
1029.99933
1029.999384
1029.999302
1029.99965
1029.999589
1029.999391
1029.999511
1029.999332
1029.999346
1029.999109
1029.999516
1029.99935
1029.999529
1029.99955
1029.999594
1029.999455
1029.999208
1029.999613
1029.999427
1029.999237
1029.999588
1029.99897
1029.99932
1029.999092
1029.99965
1029.999394
1029.999489
1029.999369
1029.999262
1029.996953
1029.999348
1029.999338
1029.999349
1029.999127
1029.999531
1029.999448
1029.99911
1029.999374
1029.999205
1029.999525
1029.999155
1029.999213
1029.998811
1029.99926
1029.999007
1029.999399
1029.999236
1029.999239
1029.999426
1029.99967
1029.99939
1029.999102
1029.9995
1029.999156
1029.999363
1029.999302
1029.999618
1029.999183
1029.999568
1029.999143
1029.999226
1029.998983
1029.999135
1029.999631
1029.999558
1029.999078
1029.999335
1029.999216
1029.999219
1029.999238
1029.998649
1029.999508
1029.999173
1029.999225
1029.999483
1029.999182
1029.999167
1029.99948
1029.999481
1029.999125
1029.999235
1029.998598
1029.99912
1029.999321
1029.999549
1029.999068
1029.999428
1029.999021
1029.999544
1029.999208
1029.999186
1029.999165
1029.999248
1029.999249
1029.999407
1029.999281
1029.999012
1029.999093
1029.999454
1029.999045
1029.999017
1029.99952
1029.999486
1029.999309
1029.999506
1029.999503
1029.999537
1029.999302
1029.99944
1029.999199
1029.999513
1029.999376
1029.999188
1029.999444
1029.999638
1029.999372
1029.999294
1029.999415
1029.999457
1029.999186
1029.999047
1029.999304
1029.99935
1029.999272
1029.999102
1029.999388
1029.999488
1029.999522
1029.999332
1029.999521
1029.998862
1029.99917
1029.99944
1029.999248
1029.999325
1029.998914
1029.999336
1029.999386
1029.999436
1029.999202
1029.999532
1029.999436
1029.999428
1029.999639
1029.999505
1029.999436
1029.999531
1029.99923
1029.99902
1029.999538
1029.998988
1029.999364
1029.999055
1029.999222
1029.99927
1029.999504
1029.998924
1029.999173
1029.999222
1029.998955
1029.99945
1029.999227
1029.999081
1029.999206
1029.998956
1029.99943
1029.999475
1029.998291
1029.999357
1029.999286
1029.999128
1029.676254
1029.739368
1029.695826
1029.441359
1029.621358
1029.786701
1029.819844
1029.763203
1029.775113
1029.79013
1029.754365
1029.821817
1029.830739
1029.925276
1029.818167
1029.791477
1029.828309
1029.781189
1029.296122
1027.962773
1028.057366
1025.482911
1027.79339
1025.693955
1029.722293
1027.114204
1028.529518
1029.5823
1028.030836
1028.479573
1025.238316
1028.225873
1029.420162
1028.421339
1029.943095
1029.99925
1029.999232
1029.999051
1029.99913
1029.999067
1029.99959
1029.999027
1029.99946
1029.987941
1029.999435
1029.999009
1029.999218
1029.999028
1029.998639
1029.999001
1029.998945
1029.999228
1029.999199
1029.999069
1029.999224
1029.999491
1029.999325
1029.999182
1029.999328
1029.999444
1029.999132
1029.999214
1029.747148
1029.780878
1029.859291
1029.756341
1029.62851
1029.660314
1029.873741
1029.642557
1029.669489
1029.866073
1029.716058
1029.723015
1029.428051
1028.81822
1027.541239
1025.487913
1026.652527
1029.181317
1025.541242
1025.195206
1024.667767
1026.366853
494.6850243
1027.001431
1028.897337
1029.999133
1029.998574
1029.998867
1029.998794
1029.99933
1029.998947
1029.99952
1029.999351
1029.999501
1029.999509
1029.998772
1029.999339
1029.998923
1029.999086
1029.998734
1029.999187
1029.999363
1029.999255
1029.846373
1029.998958
1029.999598
1029.998808
1029.999298
1029.998415
1029.999473
1029.998619
1029.712043
1029.762338
1029.448901
1029.712504
1029.713595
1029.895972
1029.736612
1029.813758
1029.916919
1029.806459
1028.770225
1025.95714
1025.873391
1026.689453
1026.809921
1029.865594
1029.172724
1029.57127
1027.373654
1029.105427
1029.182068
1029.421961
1027.658015
1029.327009
790.9136556
332.2752383
766.2131523
552.3129112
721.8995329
386.8561346
1024.474031
534.1720458
1000.655352
643.0327785
1029.418931
1029.999229
1029.99945
1029.999286
1029.999445
1029.999123
1029.999503
1029.999098
1029.99933
1029.999289
1029.999339
1029.999186
1029.999514
1029.999184
1029.999392
1029.999367
1029.999577
1029.999274
1029.998011
1029.999294
1029.999407
1029.999461
1029.999442
1029.999152
1029.999454
1029.999452
1029.999552
1029.999155
1029.999411
1029.998997
1029.999271
1029.999085
1029.999367
1029.999363
1029.999278
1029.99938
1029.998671
1029.998923
1029.99929
1029.451481
1029.788476
1029.834925
1029.835671
1029.494888
1029.445378
1029.793697
1029.830459
1029.892811
1029.826352
1028.898337
1029.705187
1029.706831
1029.677404
1029.637191
1029.746089
1029.701869
1029.791393
1029.691578
1029.727233
1029.793949
1029.33897
1025.59058
1027.055899
1025.416856
1027.052425
1029.640792
1028.92403
1026.06452
1027.728935
1026.497014
1029.806712
1029.726887
1026.222265
1026.429977
1026.106696
1025.70021
1027.123812
1025.522478
1029.999549
1029.988474
1029.999398
1029.999494
1029.999527
1029.999064
1029.95379
1029.999441
1029.998826
1029.9988
1029.999097
1029.998541
1029.95454
1029.999329
1029.999129
1029.99919
1029.999063
1029.999232
1029.999167
1029.999391
1029.999109
1029.998851
1029.99899
1029.999002
1029.999032
1029.709408
1029.898109
1029.864647
1029.872662
1029.871028
1029.894067
1029.864833
1029.72541
1029.818261
1029.835682
1029.770147
1026.709604
1027.656346
1027.330336
1027.144744
1029.003092
1026.819819
1029.008013
1028.238523
1029.812207
1028.61733
1029.8489
1029.627787
357.1862472
1028.291937
1029.999542
1029.999092
1029.998658
1029.999417
1029.99888
1029.999214
1029.999127
1029.998966
1029.99881
1029.998964
1029.997735
1029.999384
1029.999607
1029.999583
1029.999437
1029.999171
1029.999374
1029.998816
1029.999133
1029.998907
1029.999262
1029.998837
1029.999484
1029.998784
1029.999041
1029.743011
1029.769388
1029.892363
1029.75557
1029.757285
1029.895334
1029.738318
1029.766452
1029.754612
1029.852242
1029.811733
1029.705907
1025.66884
1027.29868
1027.479353
1028.659639
1027.73793
1027.954924
1029.568003
1029.572694
1028.372345
1025.617029
1027.327445
1026.184276
1029.532467
1025.67067
369.5459298
445.2421739
1029.999177
1029.999323
1029.999247
1029.999358
1029.999219
1029.999354
1029.998783
1029.998827
1029.999113
1029.999517
1029.999257
1029.999309
1029.999463
1029.999513
1029.999137
1029.999268
1029.999363
1029.998937
1029.997452
1029.999156
1029.999149
1029.998624
1029.999452
1029.999433
1029.999422
1029.999322
1029.999131
1029.999076
1029.999234
1029.999151
1029.999109
1029.999486
1029.999219
1029.577579
1029.729755
1029.600968
1029.748969
1029.614564
1029.60462
1029.78163
1029.800471
1029.755014
1028.149372
1029.751395
1029.493494
1029.519713
1029.576937
1029.586053
1029.868725
1029.469213
1029.464782
1029.612401
1029.853579
1028.345663
1025.908248
1029.361832
1029.681396
538.4559214
1026.733942
1026.502995
1029.271788
1026.061273
1028.225828
1028.889423
1025.629406
1029.376099
1026.60755
1027.456453
1029.402046
1029.998979
1029.999117
1029.999073
1029.999399
1029.998924
1029.999504
1029.960179
1029.99896
1029.998953
1029.940386
1029.99949
1029.998605
1029.999178
1029.998512
1029.724721
1029.998862
1029.999045
1029.999142
1029.998866
1029.999474
1029.998135
1029.999303
1029.999206
1029.998725
1029.999332
1029.998755
1029.998735
1029.998716
1029.558264
1029.864784
1029.547521
1029.581909
1029.804383
1029.810366
1029.800908
1029.486135
1029.777605
1029.743039
520.8097089
1028.099571
1026.755381
821.8995665
1029.790938
1025.669341
1029.672815
1028.668109
910.6840398
1028.095563
1029.541414
1025.348511
1025.902054
1029.999296
1029.966521
1029.998902
1029.999443
1029.998902
1029.999314
1029.999021
1029.999473
1029.998621
1029.999068
1029.998799
1029.999134
1029.998799
1029.999067
1029.998952
1029.999134
1029.998992
1029.999006
1029.999185
1029.999177
1029.998677
1029.998694
1029.999211
1029.998914
1029.999058
1029.999274
1029.998792
1029.999158
1029.624951
1029.649182
1029.774629
1029.717148
1029.303139
1029.294265
1029.713494
1029.182776
1029.247053
1029.907177
1029.817877
1029.607455
1029.987547
1029.810388
1029.840058
1028.158454
1029.524889
1024.630216
1029.287868
1026.950516
1026.307091
1028.754073
1029.208465
1026.818729
1029.774576
1027.286944
839.8905183
1005.150738
487.2313131
699.521538
734.503116
969.7947581
918.3381021
1023.486837
970.8834196
602.6628495
931.8928213
1022.249578
502.9444001
1029.998677
1029.999066
1029.999087
1029.998917
1029.999209
1029.999361
1029.999488
1029.999594
1029.999324
1029.9992
1029.999193
1029.999483
1029.999568
1029.999522
1029.999428
1029.999468
1029.999199
1029.999485
1029.999407
1029.999533
1029.999106
1029.998672
1029.999421
1029.998996
1029.999353
1029.999465
1029.999201
1029.998543
1029.999534
1029.999276
1029.998951
1029.999151
1029.999208
1029.99936
1029.999468
1029.999227
1029.999424
1029.865627
1029.827036
1029.710909
1029.687742
1029.870993
1029.823879
1028.774247
1029.872629
1029.583245
1029.763258
1029.72153
1029.713342
1028.908623
1029.891356
1029.539353
1029.813616
1029.420833
1029.543691
994.9677365
1025.612025
1029.615084
1027.437015
1029.340297
1028.283938
1025.626041
1029.765836
1029.653884
1026.954284
1026.848073
1025.810426
1026.453077
1029.070181
1027.628962
1029.855316
1025.11247
1026.798385
1028.155773
1029.999115
1029.999162
1029.999203
1029.999464
1029.99885
1029.998907
1029.999165
1029.998988
1029.993465
1029.999144
1029.99874
1029.99922
1029.998923
1029.9994
1029.999267
1029.999236
1029.998644
1029.999248
1029.998358
1029.998975
1029.999281
1029.999
1029.99941
1029.998765
1029.606581
1029.681033
1029.790347
1029.592493
1029.623264
1029.624917
1029.489057
1029.780854
1029.822265
1029.51102
1029.577182
1029.636808
1029.658367
1029.587746
1029.650712
1029.51722
1025.870175
1024.773689
1027.373335
1028.086649
1028.724267
1028.38959
1029.247975
1025.458583
1025.771344
1027.692551
1029.343651
546.5106711
1029.999545
1029.99922
1029.999358
1029.999444
1029.999145
1029.999571
1029.999154
1029.92303
1029.999453
1029.999038
1029.999391
1029.999542
1029.999024
1029.999244
1029.998895
1029.999426
1029.999445
1029.999072
1029.99902
1029.999242
1029.99937
1029.999225
1029.999359
1029.99911
1029.999014
1029.999199
1029.924713
1029.558244
1029.929931
1029.753484
1029.816195
1029.87006
1029.806043
1029.917148
1029.72543
1029.893961
1029.694825
1029.733252
1029.906439
1028.676157
1029.494653
1026.716323
1028.770069
1027.253185
1029.112369
1029.345002
1029.502214
1026.2867
1025.249461
1028.627698
1028.227153
372.5655677
604.9115257
959.1241345
981.3230353
730.3045526
1024.120991
316.6942018
330.0915216
303.3191077
368.8668749
300.2754939
299.7098641
305.5793708
301.6212271
302.7412941
302.1261212
303.0407348
301.9968268
335.5342084
324.796821
298.7793809
299.4413089
546.4937397
304.9529587
336.6640705
557.5717115
897.0903314
345.1919211
298.7038946
300.5438355
552.4131697
891.8374682
303.6161445
308.1713002
308.4503685
296.1339147
298.1435951
297.936251
304.2974917
299.2557757
306.0237862
297.4476
303.765466
296.3454142
307.6060195
307.5173994
304.0441566
301.1048266
296.1452471
305.5477644
302.2140723
308.8570331
305.1231653
308.7992204
304.7445214
303.0938292
302.214276
307.2345725
301.5178681
326.1247308
307.0488214
334.7707694
304.131871
306.2078901
300.9912985
330.0137197
305.8758407
331.435274
302.3701101
303.8864333
329.4537592
306.1967308
304.3642797
300.014446
299.1788194
307.4260261
311.3792715
308.4911925
308.7883421
306.3074674
301.4180666
308.1233131
306.4173165
301.0929487
309.7495272
307.4604898
301.2645408
308.4874196
308.1492807
298.1248204
306.3284479
301.4285964
298.5771
321.9205513
312.1486788
325.1721354
329.2426419
306.7103423
302.1863196
302.1350825
330.830465
335.5615014
340.2351368
306.1595056
305.4176732
298.586292
348.3572173
309.9819844
302.4986249
300.5937621
342.690237
307.3215966
302.7730865
299.5252384
304.7155711
312.0233904
303.5817293
305.4313972
298.3506058
307.5975413
305.6300834
308.3063966
306.1559058
305.300318
301.2281658
307.1300843
309.3682579
304.766809
326.1384513
334.3652882
491.0712666
304.8140898
336.9203147
306.9159991
327.8574328
305.9205773
303.5585973
332.898612
298.0711169
344.912
305.2920239
353.0737279
359.8731279
302.1072729
308.9835349
332.145122
342.1216887
920.9049209
347.8700345
314.1764621
309.9574896
325.4934865
302.0034188
305.5292422
306.1735028
308.815152
307.4667421
303.840525
306.8588989
305.7671384
307.195281
296.3888175
308.3106844
298.4095863
293.1473481
301.8896571
298.3118252
305.6857529
306.3759983
291.5804872
302.0325037
311.5727598
504.1656734
300.0086658
307.3194921
349.1923811
340.5975765
302.4290919
331.9190884
328.3704264
302.1905584
309.5719054
411.8736388
641.5741926
300.6490283
333.2720474
488.4121163
302.677317
763.9470892
309.5954553
341.8767186
306.3830863
302.4799254
326.3454238
307.2090379
305.8436986
303.1664457
301.7513065
304.1635275
305.6251266
310.7791993
295.3877559
307.4089859
308.2526418
310.6707456
308.7306933
303.839917
307.6992678
303.0231371
311.8317319
303.7476681
310.5825271
345.4640023
337.5269292
310.5161862
304.1462473
336.6436956
316.3801121
301.7699242
339.9393508
339.2017716
312.5624668
302.2609344
301.0285394
302.6645872
300.0447779
298.608994
303.3988542
309.5393655
302.2952777
309.2459336
308.8900521
301.4373656
308.9388895
311.1130899
311.4958791
298.5820775
304.4210453
310.5866825
300.6699012
306.6435378
301.390116
306.9349573
305.296082
308.2700614
302.2998659
516.0048081
343.937242
300.3412439
297.9788272
303.8671952
303.3751121
307.7546774
301.8518293
298.9521516
334.4281882
339.6978971
300.5222424
313.9082275
304.3258499
373.1551083
335.0188149
301.7611908
344.8931245
306.7047395
301.9313788
346.6685
302.9346809
307.7598002
293.4826466
299.3093056
299.3010656
342.0770461
357.4738695
531.9936628
298.0822609
299.9203039
298.8846314
304.5839608
295.6550464
302.4530226
305.4837355
306.3267177
299.0002895
308.380507
308.018065
301.8780912
300.5739461
307.9747526
307.227572
302.028452
306.7438628
293.8458884
306.2168886
298.2538103
303.0735524
295.8190325
297.7480614
302.7054697
306.8526393
303.0210678
304.271881
298.7790837
304.8995779
305.9965087
299.8692392
307.4134915
299.5891872
302.444037
298.9622879
305.0432986
305.9799578
320.7092129
309.4237973
304.5746034
454.3223606
301.8802706
304.1759011
300.4540002
336.0249234
302.5500915
306.949932
298.2550625
299.1575395
299.3634383
299.5392379
308.5240627
301.1119041
304.0428195
306.4981614
306.4873458
304.1345096
302.6983465
305.2433389
306.9344907
300.4492208
301.9805067
307.896916
307.6412338
307.7987784
305.1188096
311.5951435
300.3095921
330.8706264
326.9016992
303.1118704
305.8047203
302.0267338
347.776834
305.0596795
307.78208
306.8820765
327.4305614
404.123801
301.400663
305.5075917
729.0090951
305.4177251
301.2455037
301.2333647
307.1513518
304.2908587
308.5976747
310.4764804
307.8510631
307.7610794
306.1769279
307.6036123
302.6017225
307.6779485
304.6917483
308.582514
304.8935028
301.4701541
305.3127632
306.1171381
308.7581297
306.627493
306.4416653
307.451282
332.6982344
301.5320122
333.4490096
301.5364887
305.6287743
329.564009
298.6554107
300.2777161
302.7949557
303.1662455
299.8706158
343.4795157
299.8129407
353.3344991
298.6411983
341.4888083
306.4024928
298.8292651
299.4844367
299.0602403
342.0682762
348.9221164
301.0053882
303.0238445
334.4053174
301.1677548
299.5826063
303.6835048
333.5045798
300.7159504
299.3157161
301.632611
299.7871614
310.063651
306.6240521
299.5983169
305.6502689
302.9630007
294.4946159
306.7381897
296.7951952
307.9089382
299.8372077
305.6297371
316.2305944
305.4829141
299.6085863
303.5194268
304.7063327
338.6889794
341.2062523
306.9065524
311.3333111
362.7507003
301.5641428
346.1143381
303.5908788
324.9953048
302.2187524
357.3051012
300.1157062
305.3039504
294.1315373
303.6635715
333.6524743
304.3748986
298.8842537
303.0300408
306.0870067
307.7566154
308.6317295
307.9804512
306.4930787
303.4019217
307.2921788
302.9510053
306.5449282
296.9532015
301.4535416
305.4975459
307.9373046
300.5044507
319.458165
389.5763444
830.9746314
302.7459437
327.9274376
425.2101838
304.276567
306.743197
330.3615352
366.3309144
312.3852647
309.7055154
301.6136018
307.1304654
862.9568101
339.3852924
305.5185359
303.2159156
303.5260739
310.2901585
304.1712659
306.1181403
311.350522
303.1426338
300.3817997
299.0772141
305.1845198
305.6370604
308.4380295
311.9592187
309.6736284
301.3847009
311.4968639
311.8170865
332.4375428
298.4432277
339.7172268
)


// ************************************************************************* //
