/*--------------------------------*- C++ -*----------------------------------*\
  =========                 |
  \\      /  F ield         | OpenFOAM: The Open Source CFD Toolbox
   \\    /   O peration     | Website:  https://openfoam.org
    \\  /    A nd           | Version:  7
     \\/     M anipulation  |
\*---------------------------------------------------------------------------*/
FoamFile
{
    version     2.0;
    format      ascii;
    class       scalarField;
    location    "2/lagrangian/coalCloud1";
    object      Tb0;
}
// * * * * * * * * * * * * * * * * * * * * * * * * * * * * * * * * * * * * * //


2000
(
298.0000006
297.9999957
297.9999914
297.999997
297.9999661
298.0000595
298.0002656
297.9999997
297.9999973
298.0000669
298.0002107
298.0003653
298.00026
298.0000013
297.9999941
298.0001877
298.0157768
298.0015776
298.0015338
298.0000249
298.0000287
298.0001408
298.0001398
298.0015121
298.0000337
298.0000273
297.999996
297.9999997
297.9999868
297.9999715
297.999998
297.9999711
298.0000526
298.0000586
298.0002567
298.0000038
297.999998
298.0000746
298.0017261
298.0002589
298.0000034
298.0000318
298.0001665
298.0014874
298.0000053
297.9999437
297.9999786
297.9999841
298.000003
297.9999936
298.0000025
297.9999985
297.9999658
298.0002499
297.9999822
297.9999992
298.0000116
298.0000084
297.9999926
297.9999992
298.0066693
298.0065035
297.9999948
298.0068245
298.0066112
298.0000538
297.9999744
298.0000885
298.0000032
298.0002431
298.0000173
298.0000055
298.0002077
298.0002166
298.0000023
298.000265
298.0081164
298.0001356
298.0000801
297.9999406
298.0069872
298.0000233
298.0024379
298.0207002
298.0007672
298.0023884
298.002374
298.0008116
298.000012
297.9999976
298.0000093
297.9999838
297.9999624
297.9999966
297.9999947
297.9999729
297.999996
297.9999906
298.0024017
298.0025694
298.0008194
298.0023577
298.0023591
298.0000096
297.9999958
297.9999957
297.999992
297.9999843
297.999966
298.0128095
298.0123128
298.000315
298.0128687
298.012194
298.000109
298.0000847
298.0000887
298.0000296
297.9999964
297.9999833
297.9999996
297.9999938
298.0000023
297.9999929
297.9999609
298.0193162
298.0133221
298.0016611
298.0178282
298.0122342
298.0001206
298.0000484
297.9999287
297.9999999
298.0000558
298.0000745
298.000041
297.9999996
298.000004
297.9999766
297.999997
297.9999931
298.0000026
297.9999878
298.0000003
298.0000019
297.9999965
297.9999982
297.9999992
297.9999829
297.9999922
297.9999931
297.9999651
297.9999623
297.9999927
298.0000046
297.9999099
298.0000021
297.9999948
298.0000023
298.0000086
297.999996
297.9999942
298.0000028
297.9999912
297.9999703
297.9999936
298.0000097
298.0000086
298.0001777
298.0000266
298.0000205
298.000012
298.0001404
297.9999955
298.0000027
297.9999617
297.9999912
297.9999698
298.0001181
298.0002811
298.0001727
298.0000059
298.0001115
298.0004216
298.0006632
298.0002835
298.0003105
297.9999881
298.0002894
298.0000603
298.0000021
298.0001171
297.999997
297.9999911
297.9999958
298.000004
298.0000401
298.0010677
297.9999993
298.0010294
298.0000339
298.0000574
298.001745
297.9999905
297.9999896
298.0000476
298.0000263
297.9999989
298.0001708
298.0012909
298.0012461
298.0050443
298.0001897
298.0003145
297.9999957
298.0000042
298.0000134
298.0010433
297.9999911
298.0000135
298.0010178
298.0000057
298.0000653
297.9999982
297.9999944
298.000004
298.0000518
298.0002306
298.0012439
298.000151
298.000254
298.0003906
298.0012695
297.9999771
298.0000038
298.0000003
297.9999839
298.0000009
298.0000003
298.000003
298.0000001
298.0000049
297.9999993
297.9999958
297.9999897
298.0000054
297.9999986
298.0000004
298.0001603
298.0000106
298.0002965
298.000157
297.999997
298.0000022
298.0000037
297.9999632
298.0000691
298.000008
298.0000426
298.0002196
297.9999946
298.0001369
298.000106
298.0000103
298.0000335
298.0000043
298.0000021
297.999981
298.0004316
297.9999943
298.0003365
298.0009424
298.0004462
298.0010473
298.0018114
298.0009136
298.000184
298.0002121
298.0099749
298.0001617
298.0001994
298.0007237
298.0002527
298.0038315
298.0000847
298.0000671
298.0002608
298.0002465
298.0000629
298.0003783
298.0010281
298.0008666
298.0001671
298.0002011
298.0015783
298.0002424
298.0002918
298.0000685
298.0000608
298.0002431
298.0009528
298.000012
297.9999974
297.9999977
297.9999985
298.000012
298.000011
297.9999543
298.0000733
297.999968
298.000021
297.9999919
297.9999798
298.0000261
298.0001219
298.0002428
298.0002296
298.0004163
298.0000052
297.9999907
298.0001035
298.0008014
297.9999931
298.0001939
298.0001707
298.0009756
298.0002434
298.0001417
298.0000316
298.0003254
297.9999972
297.9999937
297.9999718
297.9999993
298.0000016
297.9999316
298.0000092
297.9999983
297.9999887
298.0010718
298.0000494
298.0003702
298.018602
298.0016382
298.0003686
297.9999943
297.9999962
297.9999562
297.9999372
297.999991
297.9999999
297.9999944
297.9999751
298.0000135
298.0003522
298.0011666
298.0017488
298.0013419
298.0018992
298.0004674
297.9999892
297.9999837
298.0000004
297.999996
297.9999184
297.9998273
297.9999885
297.9999783
297.9999909
297.9999975
298.0004217
298.0000044
298.0000202
298.0002124
297.9999791
297.999994
297.9999222
297.9998347
298.0001342
297.9999291
297.9999891
298.0001454
298.0001155
297.9998954
298.0006888
297.9999996
297.999903
298.0004951
297.9999962
298.0000103
298.0000116
297.9999884
298.0000081
297.9999956
297.9999414
298.0000044
297.9999962
297.9999893
297.9999264
297.9999957
297.9999961
298.0000502
297.9999903
297.9999855
297.9999469
297.9999955
297.9999951
298.0000484
298.000041
297.9999864
297.999986
297.9999983
298.0000004
298.0000124
298.0000124
297.999997
298.0000015
298.0000051
297.9999951
298.0000089
298.0000077
298.0000059
297.9999974
298.0000011
297.9999886
298.0000012
298.0000038
297.999893
298.0000457
297.9999926
298.0000409
297.9999951
298.0000177
297.9999633
298.0000027
298.0000052
297.9999963
297.9999957
297.999996
297.9999595
297.9999374
297.9999879
297.9999962
297.9999876
297.9999735
297.9999978
297.9999977
297.9999991
297.999999
298.0001045
298.0000933
298.0000244
298.0000046
298.0001056
298.0001279
298.000757
297.9998956
297.9999473
298.0000299
298.0000014
298.0001259
297.9999928
297.9999813
298.0000534
297.9999846
298.000006
297.9999973
298.0000199
298.0000082
298.0003858
297.9999907
297.9999282
297.9999973
297.9999755
297.9999918
298.0003567
298.0003639
298.0003561
298.0000786
298.0003633
298.0034098
298.0000446
298.0015056
298.0147201
298.000105
297.999959
297.9999995
298.0000158
297.9999458
298.0003526
298.000067
298.0003616
298.0003713
298.0034602
298.0014843
298.0015069
298.0014106
298.0001952
297.999901
298.0002293
298.0008026
297.9999748
298.0016235
298.0053531
298.0023908
298.0016886
298.0002013
298.0014392
298.0002716
298.0003156
298.0014935
298.0002358
298.0002033
297.9999475
298.0051258
298.0017675
298.002025
298.0020415
298.0024442
298.0002127
298.0030246
298.0077406
298.0011572
298.0013758
298.0057379
298.0132748
298.0012992
298.0048678
298.0118347
298.002732
298.0007468
298.0009297
298.0013069
298.0007069
298.0007074
298.0007532
298.0012207
298.0013168
298.0000727
298.0011002
298.0018148
298.0013505
298.0017726
298.0012909
298.001305
298.0009678
298.0006995
298.0006948
298.0007299
298.001283
298.0000219
298.0000292
298.0001284
298.0000073
297.9999964
298.0001268
298.0002321
298.0002599
298.0184084
298.0002594
298.0002975
298.0003666
298.0025489
298.0079581
297.9999915
298.0000332
297.999868
298.0000045
297.9999936
298.0000761
297.9999912
298.000275
298.0004305
298.0190744
298.0023484
298.0213424
298.0000365
298.0004445
298.7857937
298.0015614
298.0018296
298.0275226
298.0033252
298.0000682
298.0015454
298.0016026
298.0033658
297.9999897
297.9999949
298.0000021
297.9999982
298.0000256
298.0031618
297.9999903
297.999989
297.9999982
298.000013
298.000021
297.9999977
297.99999
297.9999955
297.999997
298.0021997
298.000074
298.0015281
298.0034248
298.0032359
298.0000357
298.0000563
298.0015479
297.9999947
298.0000002
297.9999967
298.0000294
298.0000235
297.9999968
297.9999971
298.0000032
298.002165
298.0021501
298.0000486
298.0000034
298.0000065
298.0000064
298.0021343
297.9999368
298.0001613
298.0001208
298.0000864
298.0000012
297.9999984
297.9999995
298.0000888
297.9999867
297.9999975
297.9999371
298.0000501
297.9999974
298.000003
298.0002387
298.000022
298.000393
298.000003
298.0001714
298.0002602
298.0006267
298.0004021
298.0000876
298.0010603
298.0000022
298.0002251
298.0002419
298.0001991
298.0000167
298.0002988
298.0000918
298.0000575
298.0004013
298.0001287
298.0158848
298.0040906
298.0000117
298.0000412
298.0000416
298.0000412
297.9999998
297.9998851
298.0000563
298.0000397
298.0000401
297.9999846
298.0000074
298.0000043
297.9999925
298.0009449
298.0000002
298.0021779
298.0009901
298.001116
298.0044402
298.0000448
297.9999635
298.0000006
297.9999969
298.0000061
298.0000015
298.0000165
297.9999986
297.9999931
298.0009705
297.9999195
298.0011212
298.0021476
298.0000078
297.9999697
297.9999959
297.9999282
297.9999897
297.9999743
297.9998457
298.0000086
297.9999842
298.0000059
297.9999814
298.0000701
297.9999756
298.0006312
298.0009472
298.0001684
297.9999681
298.0000133
297.9999984
297.9999981
298.0000069
298.0000028
297.9999951
297.9999362
297.9998054
298.0835923
298.0021822
298.0022268
298.0060264
298.0000819
298.000131
298.0000013
298.0000772
298.0000825
298.0000119
297.999993
298.0002616
298.0008763
297.9999976
298.0002718
298.0002596
297.9999891
298.0023339
298.0061084
298.005768
298.0000944
298.0000754
297.9999653
298.0001073
298.0001522
298.0001361
297.999994
298.0003122
298.0002835
298.0002613
298.0002797
297.9999865
298.0001607
297.9999775
298.0000917
297.9999799
297.9999662
297.9999437
297.9999755
298.0129303
298.0124104
298.0000091
298.0125905
297.9999772
298.0000348
297.9999612
298.0000022
297.9999419
298.0007834
297.9999695
298.0184251
297.9999914
298.0133293
298.0122522
297.9999835
298.0003162
298.0005466
298.0027357
298.0013166
298.0013376
298.0003478
298.0020417
298.0001735
298.0006574
298.000213
298.0010533
298.0005203
298.179434
298.0060554
298.1793141
298.0002914
298.0005521
298.1966548
298.1216935
298.060884
298.1848557
298.2467881
298.1742684
298.0869017
298.0783802
298.2339984
298.0723278
298.1321197
298.1616419
298.0847424
298.0589529
298.3680726
298.1424165
298.1705891
298.0461623
333.8510341
331.3522195
341.869256
341.3387617
344.4287159
330.1134203
327.5615322
329.74772
330.620287
329.9688155
331.6654027
329.4622374
326.8870124
299.6346215
327.6142137
328.7562667
326.9584393
329.3376479
344.3230611
354.4643801
343.3875832
373.15
356.7056663
360.4394482
330.9982791
358.0154991
351.4187868
337.2090653
357.5505392
351.7248268
373.15
355.2894697
337.848018
350.7786148
300.303061
298.0205118
298.0093546
298.0017037
298.0018561
298.0008576
298.0002317
298.001056
298.0027761
298.029576
298.1989139
298.1136791
298.1048645
298.073063
298.1069675
298.257816
298.104976
298.1967399
298.2455675
298.007803
298.0564333
298.0876622
298.1461343
298.267011
298.1637085
298.1521704
298.1539179
298.3954582
330.3647334
328.6705404
325.4277283
329.8808064
336.3275073
335.1529529
323.1362503
335.7879655
334.8754012
324.8037861
333.3021983
332.9070153
341.4927906
348.6076374
356.0105186
373.15
359.0700696
344.7250733
354.9067803
373.15
373.15
358.691379
342.7452864
358.2960425
349.1388233
298.0575416
298.0554869
298.001956
298.170694
298.0909731
298.1557309
298.08933
298.1354322
298.0151132
298.0169696
298.0436242
298.1998988
298.2145949
298.230469
298.3819552
298.0962472
298.1539501
298.0912262
299.6357738
298.2503115
298.0173336
298.251107
298.0444648
298.3897391
298.04569
298.3006021
333.5735184
332.7152079
341.1605491
333.5257546
333.5410727
300.1854468
326.1117347
326.5940306
319.7386115
326.9828745
349.4962527
360.6920773
360.6955964
358.920216
356.6163324
318.1257916
347.4358371
338.3408442
356.5888858
345.9853115
322.1019212
340.0479969
356.1178951
344.3051626
595.9699778
689.4904509
388.909153
498.506158
599.1695594
693.3586841
373.15
397.114071
373.15
611.3104099
342.8614223
298.0002276
298.0003462
298.0003583
298.0006193
298.0730846
298.0004863
297.9999928
298.0783578
298.0309897
298.0007472
298.0304575
298.0006594
298.0002851
298.017854
298.0002471
298.0013209
298.0011349
298.0328705
298.2031184
298.1152279
298.1175954
298.1015571
298.2550182
298.1485907
298.0011748
298.0775924
298.0929814
298.1183632
298.234192
298.221948
298.2327335
298.0743991
298.0879163
298.1776742
298.1768904
298.1689235
298.2234558
298.1311631
333.1283657
330.4791521
326.5784177
326.5015014
332.1003119
333.3371008
330.3122299
326.9090976
323.0320354
325.7357735
346.4170011
333.6435962
333.5663391
334.7193738
334.9815419
328.803763
331.9137923
330.2981792
333.5441887
329.0866921
330.1430243
353.4561804
373.15
357.5646976
373.15
357.2191088
344.0831882
348.7410705
359.9247282
360.425857
357.3669957
328.9400397
332.006552
360.1641792
359.3143643
359.9519622
359.691281
358.6253354
373.15
298.0015144
298.1626772
298.0007424
298.0603683
298.0162024
298.0001749
298.2955334
298.0976395
298.0481807
298.1012689
298.044587
298.052407
298.3396792
298.1434802
298.1472472
298.1909436
298.3059833
298.1335799
298.3170735
298.0572499
298.1620254
298.1845128
298.1079597
298.2218586
298.2070839
333.5465994
323.2399976
324.3694524
326.7803217
323.7802377
324.3627736
322.5908412
331.1646885
327.7554075
326.5488507
333.194349
359.3342061
356.3340585
358.2372717
358.9009912
344.810901
359.5364722
351.2637046
355.2695062
323.8460804
351.7826571
323.9121802
333.9735082
410.3501976
355.0892789
298.0001587
298.0000956
298.0000891
298.0004229
298.0898596
298.0006668
298.0008401
298.0939471
298.0011336
298.0741115
298.1015188
298.0028091
298.0033626
298.0008594
298.0030699
298.2699593
298.064736
298.0646627
298.2758012
298.1851906
298.1790384
298.2417197
298.0034819
298.1880376
298.1767726
332.5819025
331.0289068
321.9336353
331.8946223
331.7525102
321.6244113
332.9028414
331.4771445
332.1611965
325.7950559
328.1553491
333.6380099
373.15
359.3813221
356.5611995
349.8670553
355.5954241
355.2359071
339.3498163
338.7531854
352.5311931
373.15
356.5737345
359.0252385
337.3635643
359.8120339
706.1906639
663.6036352
298.1387479
298.0006233
298.0160043
298.0006788
298.0003876
298.000552
298.0004945
298.0001476
298.0016657
298.0003718
298.0694742
298.0014748
298.0014335
298.0014729
298.1688576
298.1208653
298.0963578
298.2711822
298.2724586
298.1675834
298.1545104
298.3096334
298.0745278
298.0753372
298.1344214
298.1231167
298.2215205
298.2320769
298.0526378
298.3579639
298.3723723
298.0015304
298.1932944
302.4613978
330.8000191
338.0115151
330.0269565
337.550828
337.8244068
328.9268101
328.1690781
330.4211359
349.957179
330.5747341
339.5358724
338.9610648
337.0124826
336.8577484
324.2212233
335.9731095
336.1654269
335.9475017
325.4339426
348.5440345
360.6237934
339.9556801
331.9980677
372.1983947
360.3197146
359.2509073
339.5463704
359.609367
351.2422048
348.4009091
373.15
342.0584741
358.8172004
355.6632766
337.8010555
298.1569714
298.1621138
298.0019115
298.0026427
298.0058492
298.001615
299.4998708
298.1335091
298.0100048
299.0654872
298.0316609
298.0314974
298.0320688
298.1853408
301.3728801
298.2559764
298.2633284
298.3181486
298.1261359
298.1025364
298.3076112
298.1238761
298.0757077
298.5909882
298.0695906
298.1846015
298.3204239
298.1511758
340.2390832
327.6076699
339.9473697
339.4515414
327.7778737
327.4816849
327.9143843
340.4350789
332.1623706
330.9549813
359.3570312
358.0943475
359.5012487
448.8269279
330.5386479
373.15
334.0571746
350.2442129
499.7952838
354.9569594
338.7925679
373.15
373.15
298.0022391
299.8490159
298.0007376
298.0031186
298.0002463
298.0007
298.0001965
298.0001733
298.0002012
298.0369379
298.0384255
298.0075449
298.0385803
298.0388203
298.0146057
298.1031387
298.2240904
298.164355
298.1285183
298.1374156
298.0758439
298.2180163
298.0570876
298.1133697
298.093463
298.1853324
298.1407261
298.0875068
335.5075107
335.2246031
332.2445191
332.7103203
341.5113359
341.6998008
332.968756
343.4873271
342.4998683
322.4038397
325.8724682
333.3136796
298.4269053
326.2799519
323.931427
354.2010178
338.7508326
373.15
343.1904815
357.8337844
358.609562
348.061675
342.4867564
357.692894
327.9565549
356.69462
466.2526846
373.15
682.6825696
416.2055639
411.0757933
347.309904
363.2941202
373.15
433.033331
353.4683324
553.1749626
373.15
660.8323173
298.207362
298.2085856
298.0002982
298.2682908
298.2073797
298.0004191
298.1512436
298.1508675
298.0843622
298.0010335
298.1505843
298.0827026
298.0008444
298.0012037
298.1004226
298.0012674
298.002212
298.0017185
298.000397
298.0002005
298.0006918
298.2931786
298.0864533
298.1149493
298.0473177
298.0622024
298.2684173
298.4029284
298.2016643
298.2904686
298.1710606
298.2012835
298.2883384
298.1681592
298.0065062
298.1720422
298.1038456
325.7759269
326.280174
333.2027507
334.2421603
325.4066749
326.4974044
349.6273525
326.7518947
341.3809776
338.8953759
334.9794677
335.3896371
348.9701415
325.8192364
340.5231915
328.3132325
341.5736447
340.4415234
493.7100173
373.15
348.3569789
355.8124179
341.6555994
351.9402077
359.1433359
332.5087986
337.3307445
359.6492181
359.5337725
373.15
373.15
347.4542127
358.6458361
327.725353
373.15
358.6303459
349.6878935
298.0006215
298.0008117
298.0006062
298.0681063
298.013576
298.0013431
298.0057506
298.0002853
298.0043641
298.0008309
298.0006941
298.0737408
298.3182779
298.0692401
298.076872
298.1043265
298.433127
298.2182726
298.0055355
298.2630606
298.1271205
298.2276737
298.0955658
298.2609217
335.0235031
332.7262081
328.2682496
335.4395676
334.3460697
334.3595627
337.7107532
328.8933886
332.6781295
337.8390195
339.4598739
333.1456918
332.6480356
334.6016765
333.0271336
337.4786229
360.0554767
373.15
356.8540062
355.9211116
351.7718502
353.4744729
333.709684
373.15
359.4578142
354.8313881
335.1814037
333.4500404
298.0006897
298.0009096
298.0003689
298.0003112
298.005089
298.0005487
298.0371845
299.7691628
298.0037359
298.0003296
298.0092479
298.0008829
298.0001763
298.0590327
298.1807225
298.101952
298.1197617
298.1216966
298.2360991
298.0896531
298.0943934
298.2132152
298.0597229
298.1976472
298.1800344
298.0038413
318.9915577
340.0377217
318.0984811
332.6690323
330.8940836
324.91541
331.5982679
319.9372526
332.9604392
322.7960744
334.2927173
332.6433238
321.6906611
352.9984643
339.209827
361.1290269
351.4441578
355.4932759
346.2229537
343.7406725
340.446642
360.1561952
373.15
351.1674756
353.9617419
685.3768722
629.4524536
577.4628251
373.15
642.4043766
373.15
770.431403
869.1837643
1122.106211
682.9226562
1124.371869
1113.10686
1113.150376
1113.949995
1107.262946
806.966774
1103.331621
1117.874731
782.8137963
803.2061973
1116.708306
1107.93756
663.5793809
790.4973516
801.8812819
679.4956916
608.4879425
834.2101338
1125.878043
1111.445104
672.4865226
602.0290604
1151.885462
1160.913505
1156.564109
1144.922589
1154.059892
1122.300909
1159.342045
1130.454721
1148.087161
1119.372744
1156.594816
1127.2122
1155.733046
1161.374182
1153.634987
1153.030875
1116.732357
1160.303099
1125.417191
1160.283891
1119.73919
1161.695429
1163.047635
1161.75817
1131.576885
1153.225393
1106.732777
818.3163046
815.1548375
800.6596138
1147.500117
1102.140256
781.5352302
813.6137748
1146.003411
791.7754546
1077.250519
1110.33583
820.1825945
789.4936327
1125.034347
1130.92156
1131.502159
1145.679707
1137.222686
1178.935619
1144.84834
1157.016642
1131.861097
1146.653465
1111.708835
1110.344577
1152.468162
1162.458158
1152.154137
1168.460612
1166.815277
1129.46426
1167.872784
1144.837491
1121.422132
787.1660589
1124.109091
796.4184893
835.2078079
1108.430618
1107.806124
1106.99899
814.1223587
810.4702845
836.0164961
1111.049798
1136.381977
1107.449802
835.2218761
830.5192034
804.404058
804.0186538
844.6579165
1154.541992
1164.927286
1155.478912
1119.056394
1106.196204
1148.326726
1136.457464
1117.32853
1151.229867
1131.579614
1131.697138
1171.767906
1111.118672
1150.821446
1126.846983
1190.257011
1109.879537
802.6549122
800.5692967
686.1483896
1102.967448
834.7298381
1110.089325
785.227649
805.0673558
1107.277762
819.7588636
1103.397272
789.0761875
1102.398647
715.3441557
687.412922
783.6600301
819.1292801
788.2258584
858.4839507
631.5882826
831.7291004
788.0931344
1099.004725
800.335795
1099.291045
1103.903282
1113.72548
1136.348589
1149.127517
1116.04824
1133.008751
1106.644519
1147.20895
1109.782914
1143.454301
1116.800253
1144.359661
1134.792289
1103.505404
1138.814868
1139.737392
1103.367019
1102.738447
813.306694
678.4658145
1110.485808
1109.02439
731.7806379
795.0261328
1104.51649
857.4837407
845.4153802
1112.311385
769.0730144
690.9461701
670.5262408
1127.564494
767.3314992
662.1925976
1106.639913
639.6697004
747.2007084
834.9021392
860.8842562
1114.189819
762.8007147
1134.765023
1143.499357
1158.765486
1130.497418
1143.088797
1142.435959
1130.573887
1105.613758
1158.217303
1170.179066
1158.798822
1117.587331
1109.666431
1143.379869
1171.179444
1186.714855
1105.864368
1128.887212
840.2510769
837.7167671
1116.537174
1107.097512
817.3349442
789.2613742
1102.626598
808.4111123
811.0460498
1109.910217
1096.643283
814.1230414
1128.609274
1136.562612
1121.683113
1159.795809
1168.902463
1118.30332
1154.758674
1130.120786
1105.700436
1148.3619
1162.898179
1172.688111
1135.189246
1114.423119
1148.583938
1121.680892
1167.312383
1171.446764
1124.059782
1159.235764
1191.968193
1086.72286
400.2319053
840.7629311
1111.573245
1118.479216
767.4127823
1105.782695
1106.448876
794.9143558
804.9653778
804.7941075
808.3367783
1106.700743
795.1916015
778.5388955
697.3028795
875.7063323
1115.708262
848.9479821
1110.883706
1129.923756
842.4931956
1114.862194
1112.782832
1132.270522
776.6541185
1125.136095
786.0098457
692.5705923
641.982742
1132.061856
1116.336716
1125.413836
1154.152773
1151.893616
1112.496821
1141.799008
1142.602256
1122.478639
1151.38827
1126.997288
1122.951293
1163.141922
1153.66623
1153.614813
1116.62222
1166.463119
1152.903688
1153.730088
1131.070078
1144.224068
1157.438145
1133.920446
1158.752923
1159.287821
1111.541341
1142.009511
1138.197837
1167.292305
1165.881679
1163.311411
1173.184231
1118.234102
1110.67456
1126.455085
1046.647889
796.6033654
825.7154062
782.519079
1001.628864
687.6615714
1126.279545
762.0418539
1124.543048
809.2530432
1112.588596
1164.58033
1171.812716
1154.992157
1154.053135
1125.93348
1172.980351
1156.621066
1164.235483
1179.969614
1157.927451
1157.376866
1120.26367
1166.292894
1157.61087
1168.248304
1113.750382
1164.738062
1158.67997
1192.6731
1177.012165
1196.918027
1122.755162
815.2533703
838.6016768
778.8631554
1112.223494
790.2316348
788.7484051
1114.43177
1097.339466
773.6043117
815.8560503
700.5260142
1124.656433
1147.946719
640.1395413
1149.258828
1110.751851
1168.062015
1165.162538
1130.173413
1166.424906
1170.066429
1162.958773
1155.56173
1097.3444
1155.966488
1121.472799
1168.330081
1140.28439
1183.760437
1118.019993
1116.276217
1184.595115
1112.183012
1147.628537
1162.0983
1185.274175
1137.802273
804.7706976
1108.787663
819.8772161
1097.945532
802.1860451
815.6322495
1108.328176
1099.752325
1104.16878
1108.086495
811.5879092
821.2797142
1106.44268
581.556651
1111.522555
812.5618783
803.1255001
1102.096734
1105.624919
1105.971085
833.7259997
822.9194557
1105.52299
764.3769106
792.1867686
1100.235797
1105.561227
775.34709
793.8228251
1146.159281
1104.235663
1112.736092
1115.89854
1122.231781
1148.822254
1105.68471
1112.823235
1148.018255
1112.265943
1145.866649
1119.241425
1141.154137
1115.645097
1146.531829
1147.949007
1155.688218
1118.682136
1141.709723
1099.694359
845.0205659
820.9864608
1105.077114
1127.566754
705.1872236
1112.843102
812.355291
1125.633248
802.5405907
1107.089282
718.4896627
777.5088546
1117.475324
1103.679541
768.2748853
789.7464585
801.0184481
1107.245588
869.2900754
1107.283044
1162.510403
1148.128964
1169.496982
1143.183787
1142.91909
1144.786317
1118.626405
1121.042404
1142.478383
1117.965842
1153.001018
1108.74823
1117.215543
751.0387621
690.5964812
635.14791
1103.500809
801.2985491
682.4464424
1113.147146
968.317614
812.6620272
700.5176438
791.1809288
1131.792905
1124.100933
795.0414565
617.5958186
793.5847697
1125.171977
1142.495988
1141.364399
1159.824877
1154.356935
1143.638839
1114.687696
1111.856342
1108.872411
1156.725108
1121.247255
1120.309579
1153.241613
1159.214565
1158.482279
1119.78367
1170.394131
1158.176845
1142.026135
1130.129356
823.4099102
)


// ************************************************************************* //
