/*--------------------------------*- C++ -*----------------------------------*\
  =========                 |
  \\      /  F ield         | OpenFOAM: The Open Source CFD Toolbox
   \\    /   O peration     | Website:  https://openfoam.org
    \\  /    A nd           | Version:  7
     \\/     M anipulation  |
\*---------------------------------------------------------------------------*/
FoamFile
{
    version     2.0;
    format      ascii;
    class       scalarField;
    location    "2/lagrangian/coalCloud1";
    object      Tb1;
}
// * * * * * * * * * * * * * * * * * * * * * * * * * * * * * * * * * * * * * //


2000
(
298.0000006
297.9999959
297.9999917
297.9999971
297.9999667
298.0000604
298.000269
297.9999998
297.9999974
298.0000678
298.0002074
298.0003667
298.0002636
298.0000014
297.9999943
298.0001897
298.0153814
298.0015968
298.0015532
298.0000255
298.0000291
298.0001431
298.0001418
298.0015326
298.0000342
298.0000278
297.9999961
297.9999997
297.9999872
297.999972
297.9999981
297.9999716
298.0000537
298.0000595
298.0002602
298.0000038
297.9999981
298.0000758
298.0017401
298.0002624
298.0000033
298.0000322
298.000169
298.0015076
298.0000052
297.9999451
297.9999792
297.9999844
298.0000029
297.9999938
298.0000024
297.9999986
297.9999663
298.0002535
297.9999825
297.9999992
298.0000117
298.0000084
297.9999928
297.9999992
298.0067437
298.0065778
297.999995
298.006894
298.0066871
298.0000538
297.9999749
298.0000904
298.0000032
298.00025
298.0000179
298.0000056
298.0002113
298.0002212
298.0000023
298.0002682
298.0081512
298.0001371
298.0000832
297.9999417
298.0070715
298.000023
298.002471
298.0202606
298.0007793
298.0024216
298.0024064
298.0008231
298.0000123
297.999998
298.0000095
297.9999841
297.999963
297.9999967
297.9999948
297.9999736
297.9999962
297.9999909
298.0024349
298.0025979
298.0008319
298.0023898
298.0023896
298.0000096
297.999996
297.9999958
297.9999922
297.9999847
297.9999669
298.012974
298.0124728
298.0003155
298.0130296
298.0123531
298.0001104
298.0000847
298.0000897
298.0000304
297.9999965
297.9999837
297.9999997
297.9999939
298.0000023
297.9999931
297.9999614
298.0194949
298.0134677
298.0016775
298.0180396
298.0123932
298.0001228
298.0000487
297.9999304
297.9999999
298.0000564
298.0000729
298.0000415
297.9999997
298.000004
297.9999773
297.9999972
297.9999934
298.0000026
297.999988
298.0000004
298.0000019
297.9999967
297.9999983
297.9999993
297.9999834
297.9999924
297.9999934
297.999966
297.9999632
297.999993
298.0000045
297.9999122
298.0000021
297.999995
298.0000024
298.0000086
297.9999962
297.9999944
298.0000029
297.9999914
297.9999711
297.9999938
298.0000095
298.0000084
298.0001797
298.0000262
298.0000202
298.0000119
298.0001381
297.9999956
298.0000026
297.9999622
297.9999914
297.9999702
298.0001197
298.0002908
298.0001744
298.0000059
298.0001137
298.0004278
298.0006693
298.0002878
298.0003155
297.9999885
298.0002966
298.0000614
298.0000031
298.0001195
297.9999971
297.9999914
297.999996
298.0000042
298.0000396
298.0010787
297.9999994
298.0010411
298.0000332
298.0000579
298.0017
297.9999909
297.99999
298.0000484
298.0000262
297.9999992
298.0001716
298.0013043
298.0012612
298.0049464
298.0001904
298.0003182
297.9999959
298.0000044
298.0000135
298.0010546
297.9999914
298.0000134
298.0010295
298.0000056
298.0000655
297.9999985
297.9999947
298.000004
298.0000525
298.0002334
298.0012579
298.0001521
298.0002568
298.0003919
298.0012839
297.9999776
298.0000037
298.0000003
297.9999842
298.000001
298.0000003
298.0000029
298.0000001
298.0000048
297.9999993
297.9999959
297.99999
298.0000053
297.9999987
298.0000005
298.0001573
298.0000105
298.0002907
298.000154
297.9999971
298.0000022
298.0000037
297.9999639
298.0000701
298.000008
298.0000432
298.0002226
297.9999948
298.0001388
298.0001079
298.0000103
298.0000341
298.0000043
298.0000021
297.9999814
298.0004374
297.9999946
298.0003358
298.0009523
298.0004509
298.0010589
298.0018046
298.0009236
298.0001862
298.0002143
298.0097999
298.0001643
298.0002013
298.000721
298.0002563
298.0037331
298.0000857
298.0000683
298.0002644
298.0002501
298.0000642
298.0003844
298.0010397
298.0008775
298.0001696
298.0002027
298.001596
298.000243
298.0002941
298.0000697
298.0000621
298.0002467
298.0009355
298.0000119
297.9999976
297.9999978
297.9999987
298.0000118
298.0000108
297.9999554
298.0000713
297.9999685
298.0000205
297.9999922
297.999983
298.0000255
298.0001227
298.0002461
298.0002335
298.0004202
298.0000052
297.999991
298.0001054
298.0008022
297.9999934
298.0001934
298.0001667
298.0009917
298.0002452
298.0001428
298.0000309
298.000335
297.9999974
297.9999939
297.9999724
297.9999995
298.0000017
297.9999328
298.0000092
297.9999985
297.9999891
298.0010839
298.0000488
298.0003718
298.0181966
298.0016575
298.0003753
297.9999946
297.9999964
297.999957
297.9999382
297.9999913
298
297.9999946
297.9999757
298.0000135
298.0003542
298.0011745
298.0017654
298.0013655
298.0019129
298.0004716
297.9999895
297.9999841
298.0000004
297.9999961
297.9999195
297.9998317
297.9999888
297.9999786
297.9999911
297.9999978
298.0004235
298.0000044
298.00002
298.0002088
297.9999797
297.9999941
297.9999233
297.9998369
298.0001371
297.9999301
297.9999894
298.0001481
298.0001177
297.9998982
298.000695
297.9999998
297.9999046
298.0005005
297.9999964
298.0000105
298.0000118
297.9999887
298.0000083
297.9999957
297.9999431
298.0000045
297.9999964
297.9999896
297.9999276
297.9999959
297.9999962
298.0000508
297.9999906
297.9999858
297.9999484
297.9999957
297.9999952
298.0000492
298.0000419
297.9999867
297.9999865
297.9999984
298.0000006
298.0000126
298.0000127
297.9999971
298.0000016
298.0000053
297.9999952
298.000009
298.0000079
298.0000059
297.9999975
298.0000011
297.9999888
298.0000012
298.0000038
297.9998946
298.0000463
297.9999928
298.0000418
297.9999952
298.0000177
297.9999638
298.0000026
298.0000051
297.9999963
297.9999958
297.9999961
297.9999602
297.9999385
297.9999881
297.9999963
297.9999879
297.999974
297.9999978
297.9999978
297.9999991
297.9999991
298.0001021
298.0000912
298.000024
298.0000046
298.0001031
298.000126
298.0007602
297.9998977
297.9999479
298.0000305
298.0000015
298.0001279
297.9999931
297.9999819
298.0000554
297.999985
298.000006
297.9999975
298.0000199
298.0000083
298.0003882
297.999991
297.9999293
297.9999974
297.9999759
297.999992
298.000362
298.000369
298.0003612
298.0000802
298.0003687
298.0034561
298.0000455
298.0015229
298.0144149
298.0001043
297.99996
297.9999996
298.0000156
297.9999466
298.0003578
298.0000685
298.0003668
298.0003765
298.0035047
298.0015
298.0015223
298.0014252
298.0001928
297.9999023
298.0002254
298.0007886
297.9999756
298.0016373
298.0053819
298.0024076
298.0017007
298.0002
298.0014571
298.0002717
298.0003127
298.0014937
298.000233
298.0002015
297.9999485
298.005127
298.001752
298.0020312
298.0020496
298.0024679
298.000216
298.0030386
298.0078046
298.0011712
298.0013931
298.0056426
298.0130863
298.001317
298.0048182
298.011586
298.0027149
298.0007569
298.0009343
298.0013252
298.0007176
298.0007181
298.0007633
298.0012387
298.001333
298.0000729
298.0011132
298.001835
298.0013655
298.001792
298.0013078
298.0013215
298.000981
298.0007099
298.000705
298.0007408
298.0013017
298.0000216
298.0000286
298.0001266
298.0000073
297.9999966
298.0001247
298.0002309
298.00026
298.0186816
298.0002579
298.0002981
298.000365
298.0024911
298.0080114
297.9999917
298.0000328
297.9998712
298.0000045
297.9999938
298.0000773
297.9999922
298.0002741
298.0004323
298.0193576
298.0023557
298.021638
298.0000365
298.0004471
298.7762611
298.0015782
298.0018387
298.0268587
298.0033562
298.0000692
298.0015627
298.0016187
298.0033973
297.99999
297.9999951
298.0000022
297.9999984
298.0000259
298.0031956
297.9999906
297.9999894
297.9999983
298.0000134
298.0000213
297.9999979
297.9999903
297.9999959
297.9999973
298.0022302
298.0000745
298.0015448
298.0034519
298.0032681
298.0000368
298.0000572
298.0015647
297.9999948
298.0000002
297.999997
298.0000296
298.0000237
297.9999969
297.9999972
298.0000033
298.0021953
298.0021802
298.0000478
298.0000035
298.0000066
298.0000065
298.0021642
297.9999381
298.0001572
298.0001176
298.0000842
298.0000012
297.9999986
297.9999997
298.0000867
297.999987
297.9999975
297.999938
298.0000493
297.9999975
298.0000032
298.0002363
298.0000218
298.0004003
298.0000031
298.0001698
298.0002606
298.0006357
298.0004089
298.0000854
298.0010743
298.0000022
298.0002302
298.0002459
298.0002022
298.0000164
298.0003048
298.0000942
298.0000569
298.0004075
298.0001323
298.0160928
298.0041142
298.0000117
298.0000415
298.0000419
298.0000415
298.0000002
297.9998872
298.0000568
298.0000401
298.0000405
297.9999851
298.0000075
298.0000044
297.9999927
298.0009596
298.0000006
298.0022082
298.0010043
298.0011273
298.0044213
298.0000452
297.9999643
298.0000009
297.9999971
298.0000063
298.0000016
298.0000166
297.9999988
297.9999934
298.0009843
297.9999219
298.001132
298.002176
298.0000081
297.9999703
297.999996
297.9999295
297.9999899
297.9999747
297.9998474
298.0000087
297.9999845
298.0000057
297.9999818
298.000069
297.9999761
298.0006407
298.0009664
298.0001709
297.9999688
298.0000142
297.9999985
297.9999986
298.0000078
298.0000029
297.9999955
297.9999375
297.999809
298.0841668
298.0022105
298.0022567
298.0061099
298.0000838
298.0001322
298.0000018
298.0000791
298.0000843
298.0000118
297.9999932
298.0002653
298.0008638
297.9999977
298.0002753
298.0002631
297.9999893
298.0023602
298.0061899
298.005848
298.000096
298.0000773
297.9999668
298.0001092
298.0001542
298.0001377
297.9999942
298.0003164
298.0002877
298.0002648
298.0002832
297.9999868
298.0001577
297.9999781
298.0000908
297.9999802
297.999967
297.9999456
297.9999765
298.0130882
298.0125735
298.00001
298.0127523
297.9999785
298.000034
297.9999625
298.0000024
297.9999432
298.0007743
297.9999741
298.0186202
297.9999923
298.0134667
298.0124054
297.9999838
298.0003195
298.0005541
298.0027294
298.0012928
298.0013442
298.0003532
298.0020333
298.0001735
298.0006648
298.0002156
298.0010535
298.0005252
298.1821212
298.0060546
298.1819806
298.0002895
298.0005535
298.1990706
298.1233794
298.0615649
298.1867643
298.2499616
298.176644
298.0880724
298.0794418
298.2371306
298.0732529
298.1339476
298.163792
298.086031
298.0597648
298.3731283
298.1442536
298.1728148
298.0467319
335.1898844
332.4734054
343.8159771
344.0361019
346.8680493
331.0833663
328.3701158
330.7335542
331.639405
330.9271654
332.7680854
330.3447944
327.6527852
299.6142787
328.4147035
329.6650675
327.7282678
330.2871687
347.7259687
367.4204407
350.8912338
429.2162854
373.2208795
403.785386
331.998969
381.6711392
360.0967259
339.0530889
373.4653095
360.9673964
434.3423152
367.6417534
339.9763325
359.7990642
300.2384012
298.0207263
298.0094182
298.0016628
298.0018571
298.0008672
298.000234
298.0010679
298.0027663
298.0291057
298.202148
298.1143999
298.1061985
298.0739959
298.1075561
298.2610948
298.1064259
298.199331
298.2489517
298.007673
298.057197
298.0889331
298.1480122
298.2705738
298.1660883
298.1541995
298.1556887
298.4014974
331.3995001
329.5768647
326.0919899
330.8796008
337.99242
336.6650349
323.7116149
337.3829407
336.3493984
325.4403551
334.5718211
334.1158665
344.2487725
355.1047615
374.3143363
421.6101702
390.0459214
348.7734804
383.736294
421.0534306
427.2228315
391.2426911
357.8381818
384.1126123
355.253317
298.0583481
298.0562685
298.0019473
298.1731346
298.0922696
298.1580618
298.0906017
298.137389
298.0153416
298.0171905
298.0442578
298.2025052
298.2177174
298.2337031
298.3871753
298.0975182
298.1561008
298.0925181
299.6002545
298.2537268
298.0175678
298.2546607
298.0450649
298.3943122
298.0463217
298.3047358
334.8773639
333.8718606
343.8137538
334.8263866
334.8379747
300.1470838
326.9875596
327.3736629
320.1741484
327.7880725
356.4690334
403.846161
404.1894656
388.9943459
381.1611711
318.5529796
352.1002496
340.3458351
376.6664847
350.5969918
323.3699928
342.5253605
373.4328841
347.790857
567.8070996
689.4890726
432.8594882
489.0917974
583.1411401
690.8033236
433.329044
403.8127995
500.4866347
658.1364365
345.8229557
298.0002314
298.0003502
298.0003632
298.0006275
298.0740315
298.0004915
297.9999932
298.0794643
298.0314782
298.0007576
298.0309352
298.0006571
298.0002904
298.018089
298.0002414
298.0013289
298.0011391
298.0322901
298.2057758
298.1168681
298.1192025
298.1029809
298.2584575
298.1505625
298.001185
298.0786623
298.0943575
298.1201624
298.2367934
298.2250139
298.2356396
298.0752683
298.0890519
298.1800693
298.1793542
298.1702116
298.2262565
298.13294
334.911121
331.4670855
327.3259084
327.2443221
333.7174109
335.1396532
331.2813979
327.6679177
323.5854439
326.4634648
351.8904425
334.9688205
334.8824927
336.165347
336.4705724
329.7932795
333.0887027
331.2718805
334.8683067
330.1229258
331.1071785
358.856096
423.4155714
381.7266141
408.5108463
381.0455663
346.4604564
354.8381615
398.8723405
385.0090747
385.0312286
329.8208573
333.1447449
397.7637585
392.1159478
398.0511439
399.3824539
383.2063882
424.1534554
298.0015213
298.1595999
298.0007372
298.0612054
298.0164238
298.000181
298.2913175
298.0989571
298.0487104
298.1028945
298.0451888
298.0528095
298.3380233
298.1453259
298.1492413
298.1935914
298.3100291
298.1352967
298.3214675
298.0580295
298.1639857
298.1872664
298.1094372
298.2245668
298.2100791
334.8561605
323.7982346
324.9987177
327.4843786
324.3838835
324.9549964
323.158282
332.3014715
328.5602918
327.2843127
334.3598951
390.4946015
373.8618372
381.504255
385.0906019
349.4821477
389.949213
357.8575102
368.2490204
324.5122124
360.4995591
324.5395217
335.3187344
410.2568118
366.6156159
298.0001604
298.0000973
298.000094
298.0004278
298.0911189
298.000677
298.0008499
298.0952943
298.0011461
298.0751859
298.1030332
298.0028463
298.0034083
298.0008662
298.0030416
298.2737575
298.0656269
298.0655494
298.2795426
298.1875609
298.1814722
298.2447111
298.0035337
298.1908191
298.1791115
333.7649784
332.0824427
322.453948
333.0171342
332.8645616
322.1329918
334.1012725
332.5551742
333.2994926
326.4877059
328.9935093
334.9578853
414.3069638
385.5340609
376.0240141
357.4423022
372.1956123
370.1539103
341.4013981
340.7631418
362.8403187
423.5401478
377.1227174
393.975288
339.3559147
401.9853036
705.0018227
651.6376113
298.1407062
298.0006315
298.0161802
298.0006851
298.0003927
298.0005532
298.0004973
298.000149
298.0016662
298.000373
298.0703738
298.001473
298.0014371
298.0014692
298.1712022
298.1223813
298.0977055
298.2741443
298.2723398
298.1699237
298.1560925
298.3130659
298.0755231
298.0763487
298.1361967
298.124791
298.2245284
298.2349004
298.0533517
298.3630307
298.377591
298.0015254
298.1955868
302.3384862
331.9179828
339.8996605
331.0674198
339.3693256
339.6850962
329.7482937
329.0316051
331.4654786
356.6731888
331.6320517
341.8383342
341.1288623
338.8200331
338.6444368
324.8419817
337.9932171
338.2128838
337.6274361
326.1107427
356.8212371
404.244938
342.5290178
333.2351723
384.6468617
392.7921538
392.5898726
341.6981973
398.2413916
361.5298172
354.5610936
421.202214
344.7157332
389.6461245
373.933326
340.1026313
298.1593864
298.1644441
298.0018932
298.0026021
298.0057937
298.0015932
299.4609037
298.1351324
298.0098662
299.0570909
298.031971
298.0317916
298.0323568
298.1872843
301.297402
298.2590307
298.2666644
298.3225643
298.1277412
298.1037601
298.3102498
298.1251481
298.0763737
298.5992761
298.0704775
298.1863798
298.3245808
298.152706
342.3722611
328.3557824
342.094914
341.5114383
328.6169499
328.2988367
328.7601347
342.8623937
333.2455617
331.9559732
372.608843
374.6912633
389.1035644
471.6934318
331.5112738
419.0806801
335.283867
357.5422725
553.0557044
367.6442342
340.6939686
428.8724209
427.7527754
298.0022066
299.815046
298.0007409
298.0030972
298.0002473
298.0007054
298.0001983
298.0001728
298.0002038
298.0374446
298.0388938
298.0076083
298.0391007
298.0393191
298.0145578
298.1042303
298.2268056
298.1666034
298.1302985
298.1391774
298.0768695
298.2207668
298.0578727
298.1140533
298.0947004
298.1878763
298.1422263
298.0884261
337.1332598
336.743931
333.3417803
333.9532992
344.6308357
344.8740066
334.2340932
347.2311909
345.8826338
322.921585
326.6112507
334.8162654
298.4257586
327.0507165
324.5779809
366.7414493
340.7858758
418.1433554
346.5104527
382.6645655
388.6778829
354.4379348
346.0444859
384.2766695
328.8257968
377.9324336
497.4216741
479.0210929
672.7312905
427.0472851
448.3671772
527.7626917
474.2910024
442.1606712
563.8048216
374.6512642
551.4383737
454.9792983
653.9906463
298.2100244
298.211271
298.0003084
298.2717586
298.2100458
298.0004261
298.1536923
298.1533192
298.0857273
298.0010489
298.153036
298.0840388
298.0008546
298.0012127
298.1019256
298.0012832
298.0022256
298.0016801
298.0003972
298.0002023
298.0007
298.2968453
298.0876815
298.1164933
298.047962
298.0629873
298.2721051
298.4084134
298.2046131
298.2947411
298.1726776
298.2042666
298.2925345
298.1703532
298.0064019
298.1744028
298.1053441
326.4531493
327.0289629
334.4873164
335.6381426
326.0659994
327.2571863
356.5592412
327.4524423
343.5251631
340.4050847
336.3560259
336.8108966
355.1833766
326.4624003
342.8069015
329.1638444
344.2666813
342.695843
463.0368126
420.8220731
351.388644
374.8563882
344.6716817
362.3330061
399.866734
333.6392811
339.0126498
391.1764736
389.4854329
425.5375366
413.4095253
352.236126
379.1343065
328.4601497
438.0531313
385.9969738
359.0966054
298.0006273
298.0008202
298.0006123
298.0690272
298.0137581
298.001361
298.0056754
298.0002885
298.0042995
298.0008383
298.000696
298.0747468
298.322316
298.0702103
298.0778939
298.105743
298.4389408
298.2213299
298.0055857
298.2665393
298.1288591
298.2305702
298.096892
298.2643922
336.6569119
333.9499785
329.1495643
337.141032
335.8871488
335.8912269
339.8349677
329.8209778
333.7015183
339.9353673
341.5379629
334.5788696
334.0040414
336.2198139
334.4111126
339.4429231
399.8602444
433.4245165
376.2522621
369.7145709
359.4024169
365.1899233
336.013225
430.5356812
399.5333971
370.6149025
337.2867365
354.1729392
298.0006954
298.0009157
298.0003729
298.0003138
298.0049858
298.0005429
298.0377029
299.7198705
298.0037353
298.0003335
298.0092429
298.0008907
298.0001776
298.059762
298.1830368
298.1033836
298.1214365
298.1234163
298.2389059
298.0908628
298.0952945
298.2160118
298.0604642
298.1999122
298.1823016
298.0038157
319.4010902
342.2251549
318.4811291
333.7982207
331.8514412
325.5537155
332.6075868
320.3786196
334.1783075
323.3321891
335.6528251
333.8288894
322.1872831
361.7572828
341.4305979
397.5660528
359.2650778
372.7917275
350.8524346
347.0063233
342.7884286
395.8432777
406.9753524
359.4976689
365.9816031
678.0998484
621.2460148
599.843822
527.0399834
681.4600858
448.067463
770.4364217
869.1873226
1122.107676
686.6285737
1124.373437
1113.108292
1113.151889
1113.951521
1107.264617
806.9714035
1103.333209
1117.876235
782.8182633
803.2104992
1116.70968
1107.939301
669.5522815
790.5024105
801.8856845
689.5730297
719.0458848
834.2138169
1125.87951
1111.446669
683.7215843
719.3299976
1151.886734
1160.914795
1156.5654
1144.923849
1154.061088
1122.302424
1159.343365
1130.456264
1148.088292
1119.374134
1156.596246
1127.213854
1155.734284
1161.375516
1153.636395
1153.032142
1116.733893
1160.304312
1125.418639
1160.285086
1119.740536
1161.696627
1163.048835
1161.759384
1131.578306
1153.226515
1106.734259
818.3204147
815.1592682
800.6637841
1147.501104
1102.141733
781.5402282
813.6176555
1146.004483
791.7795352
1077.251912
1110.336997
820.186597
789.4985241
1125.035633
1130.922808
1131.503456
1145.680866
1137.22386
1178.936512
1144.849484
1157.017703
1131.862227
1146.654424
1111.709995
1110.345796
1152.469055
1162.459184
1152.155225
1168.46164
1166.816306
1129.46563
1167.873821
1144.838647
1121.423545
787.1704515
1124.110316
796.4226979
835.2114122
1108.431748
1107.807453
1107.000273
814.1260037
810.4742331
836.0199889
1111.051055
1136.38289
1107.451176
835.2253755
830.5237226
804.4086046
804.0232343
844.6616812
1154.54295
1164.928293
1155.48007
1119.057574
1106.197279
1148.327783
1136.458485
1117.329867
1151.23092
1131.581111
1131.698439
1171.769038
1111.120004
1150.822517
1126.848503
1190.257933
1109.880933
802.659373
800.5736561
691.4192826
1102.969041
834.7337167
1110.090814
785.2323953
805.0718166
1107.279323
819.7630124
1103.398694
789.0803551
1102.400068
718.8649772
687.8147743
783.6649092
819.1336315
788.2302394
858.4873668
702.1584442
831.7327995
788.0977401
1099.00613
800.340181
1099.292559
1103.904681
1113.726961
1136.349914
1149.128787
1116.049759
1133.009936
1106.645923
1147.210259
1109.784349
1143.45542
1116.801784
1144.360846
1134.793502
1103.506986
1138.816038
1139.73864
1103.368615
1102.739869
813.3110377
686.9545716
1110.487053
1109.025517
734.1541841
795.0301059
1104.518013
857.4874214
845.4191849
1112.312861
769.0778834
695.2693043
698.6681964
1127.56588
767.3362371
672.4265461
1106.641524
704.7920403
747.2058104
834.9060548
860.8883573
1114.191041
762.8052718
1134.765939
1143.500513
1158.766309
1130.498546
1143.089805
1142.437234
1130.574961
1105.615348
1158.218422
1170.180029
1158.799704
1117.588884
1109.668046
1143.381238
1171.180259
1186.715796
1105.865834
1128.888231
840.2547233
837.7204656
1116.538424
1107.098874
817.3389589
789.2660479
1102.628008
808.4151328
811.0499762
1109.911253
1096.644764
814.1274667
1128.610281
1136.563939
1121.6845
1159.796856
1168.903349
1118.304748
1154.759772
1130.121826
1105.701862
1148.36301
1162.899202
1172.689026
1135.190655
1114.424428
1148.584947
1121.682207
1167.313359
1171.447691
1124.061047
1159.236585
1191.968991
1086.724442
411.9994021
840.7664502
1111.574608
1118.480433
767.417791
1105.783971
1106.450406
794.9191118
804.9700673
804.7981118
808.340645
1106.702024
795.1964555
778.5443776
701.9080458
875.7096792
1115.709697
848.9515188
1110.885164
1129.925327
842.4967939
1114.863605
1112.784242
1132.271966
776.659602
1125.137609
786.0145176
695.5288895
661.3481975
1132.063301
1116.338297
1125.415372
1154.153725
1151.894599
1112.498374
1141.800145
1142.603391
1122.479828
1151.389531
1126.99872
1122.95294
1163.143277
1153.667386
1153.615962
1116.623675
1166.464412
1152.904897
1153.73125
1131.07151
1144.225415
1157.439444
1133.921933
1158.754207
1159.289079
1111.542902
1142.010857
1138.19925
1167.293508
1165.882903
1163.31268
1173.185484
1118.235618
1110.676054
1126.456634
1046.649895
796.6085434
825.7198684
782.5243353
1001.63161
693.0988493
1126.280856
762.0473915
1124.544364
809.2571949
1112.589965
1164.581657
1171.813945
1154.993399
1154.054374
1125.935108
1172.981608
1156.622424
1164.236908
1179.970884
1157.928817
1157.378224
1120.265279
1166.29394
1157.611951
1168.249335
1113.751928
1164.739099
1158.680793
1192.674186
1177.013435
1196.918957
1122.756399
815.2571059
838.6057142
778.8677603
1112.224894
790.2365625
788.7521732
1114.433168
1097.340958
773.6093921
815.8604291
705.772163
1124.657984
1147.94783
670.0125307
1149.259999
1110.75322
1168.062791
1165.163704
1130.174623
1166.425855
1170.067325
1162.959837
1155.562818
1097.3456
1155.967602
1121.474161
1168.331095
1140.285718
1183.761452
1118.02159
1116.277798
1184.596223
1112.184609
1147.629865
1162.099567
1185.275268
1137.803696
804.7750837
1108.789172
819.8811563
1097.947002
802.1906653
815.6363834
1108.329703
1099.753811
1104.170258
1108.087948
811.5925427
821.2835553
1106.444267
584.1701821
1111.523959
812.5658349
803.1301564
1102.098356
1105.626373
1105.972662
833.7298121
822.923497
1105.524681
764.382581
792.1909451
1100.237161
1105.56278
775.3519707
793.8269419
1146.16056
1104.237137
1112.737556
1115.900022
1122.23308
1148.823432
1105.686215
1112.824759
1148.01938
1112.26743
1145.867951
1119.242796
1141.155421
1115.646751
1146.532858
1147.950233
1155.689547
1118.68375
1141.710791
1099.695786
845.0241652
820.9902407
1105.078491
1127.567947
709.1645122
1112.844298
812.3589764
1125.634536
802.5442091
1107.090533
721.2272194
777.513667
1117.476491
1103.68084
768.2797788
789.7505806
801.0229731
1107.246893
869.2939723
1107.284428
1162.511407
1148.130052
1169.497842
1143.184766
1142.919884
1144.787293
1118.627564
1121.043539
1142.479469
1117.967089
1153.001974
1108.74974
1117.217021
751.0440399
693.4525323
677.9276506
1103.502339
801.3029539
683.8067215
1113.148417
968.3203388
812.6658016
703.5463893
791.1851815
1131.793771
1124.102456
795.0465275
713.8636921
793.5886135
1125.173346
1142.497045
1141.365669
1159.825963
1154.358142
1143.640095
1114.689103
1111.857831
1108.873681
1156.726384
1121.24876
1120.311077
1153.242858
1159.215364
1158.483525
1119.785199
1170.395383
1158.17759
1142.0274
1130.130675
823.4138017
)


// ************************************************************************* //
