/*--------------------------------*- C++ -*----------------------------------*\
  =========                 |
  \\      /  F ield         | OpenFOAM: The Open Source CFD Toolbox
   \\    /   O peration     | Website:  https://openfoam.org
    \\  /    A nd           | Version:  7
     \\/     M anipulation  |
\*---------------------------------------------------------------------------*/
FoamFile
{
    version     2.0;
    format      ascii;
    class       scalarField;
    location    "2/lagrangian/coalCloud1";
    object      Tb2;
}
// * * * * * * * * * * * * * * * * * * * * * * * * * * * * * * * * * * * * * //


2000
(
298.0000006
297.9999959
297.9999917
297.9999971
297.9999667
298.0000604
298.000269
297.9999998
297.9999974
298.0000678
298.0002074
298.0003668
298.0002636
298.0000014
297.9999943
298.0001897
298.0153813
298.0015968
298.0015532
298.0000255
298.0000291
298.0001431
298.0001418
298.0015326
298.0000342
298.0000278
297.9999961
297.9999997
297.9999872
297.999972
297.9999981
297.9999716
298.0000537
298.0000595
298.0002603
298.0000038
297.9999981
298.0000758
298.0017401
298.0002624
298.0000033
298.0000322
298.000169
298.0015077
298.0000052
297.9999451
297.9999792
297.9999844
298.0000029
297.9999938
298.0000024
297.9999986
297.9999663
298.0002536
297.9999825
297.9999992
298.0000117
298.0000084
297.9999928
297.9999992
298.0067435
298.0065776
297.999995
298.0068938
298.0066869
298.0000538
297.9999749
298.0000904
298.0000032
298.00025
298.0000179
298.0000056
298.0002113
298.0002212
298.0000023
298.0002683
298.008151
298.0001371
298.0000832
297.9999417
298.0070714
298.000023
298.0024711
298.0202605
298.0007793
298.0024217
298.0024064
298.0008232
298.0000123
297.999998
298.0000095
297.9999841
297.999963
297.9999967
297.9999948
297.9999736
297.9999961
297.9999909
298.002435
298.002598
298.0008319
298.0023899
298.0023896
298.0000096
297.999996
297.9999958
297.9999922
297.9999847
297.9999669
298.0129741
298.0124729
298.0003155
298.0130297
298.0123532
298.0001105
298.0000847
298.0000897
298.0000304
297.9999965
297.9999837
297.9999997
297.9999939
298.0000023
297.9999931
297.9999614
298.019495
298.0134678
298.0016776
298.0180396
298.0123933
298.0001229
298.0000487
297.9999304
297.9999999
298.0000564
298.0000729
298.0000415
297.9999997
298.000004
297.9999772
297.9999971
297.9999934
298.0000026
297.9999879
298.0000004
298.0000019
297.9999966
297.9999983
297.9999993
297.9999834
297.9999924
297.9999934
297.999966
297.9999632
297.9999929
298.0000045
297.9999122
298.0000021
297.999995
298.0000023
298.0000086
297.9999961
297.9999944
298.0000028
297.9999914
297.999971
297.9999938
298.0000095
298.0000084
298.0001797
298.0000262
298.0000202
298.0000119
298.0001381
297.9999956
298.0000026
297.9999622
297.9999914
297.9999702
298.0001196
298.0002909
298.0001743
298.0000059
298.0001136
298.0004278
298.0006693
298.0002878
298.0003155
297.9999885
298.0002967
298.0000614
298.0000031
298.0001195
297.9999971
297.9999914
297.999996
298.0000041
298.0000395
298.0010783
297.9999993
298.0010407
298.0000332
298.0000579
298.0016999
297.9999908
297.99999
298.0000484
298.0000262
297.9999991
298.0001716
298.0013043
298.0012612
298.0049463
298.0001904
298.0003182
297.9999959
298.0000044
298.0000135
298.0010542
297.9999914
298.0000134
298.0010291
298.0000056
298.0000655
297.9999985
297.9999946
298.000004
298.0000524
298.0002334
298.0012579
298.0001521
298.0002568
298.0003918
298.001284
297.9999776
298.0000037
298.0000003
297.9999842
298.000001
298.0000003
298.0000029
298.0000001
298.0000048
297.9999993
297.9999959
297.99999
298.0000053
297.9999987
298.0000005
298.0001573
298.0000105
298.0002907
298.000154
297.9999971
298.0000022
298.0000037
297.9999639
298.0000701
298.000008
298.0000432
298.0002226
297.9999948
298.0001387
298.0001079
298.0000103
298.0000341
298.0000043
298.0000021
297.9999814
298.0004374
297.9999946
298.0003358
298.0009522
298.0004507
298.0010586
298.0018045
298.0009235
298.0001861
298.0002143
298.0097999
298.0001643
298.0002013
298.000721
298.0002563
298.003733
298.0000856
298.0000683
298.0002644
298.0002501
298.0000642
298.0003842
298.0010394
298.0008774
298.0001695
298.0002027
298.001596
298.000243
298.0002941
298.0000696
298.000062
298.0002466
298.0009355
298.0000119
297.9999976
297.9999978
297.9999987
298.0000118
298.0000108
297.9999554
298.0000713
297.9999685
298.0000205
297.9999922
297.9999831
298.0000255
298.0001227
298.0002461
298.0002335
298.0004202
298.0000052
297.999991
298.0001054
298.0008022
297.9999934
298.0001934
298.0001667
298.0009917
298.0002452
298.0001428
298.0000309
298.000335
297.9999974
297.9999939
297.9999723
297.9999994
298.0000016
297.9999328
298.0000092
297.9999985
297.9999891
298.0010835
298.0000488
298.0003698
298.0181902
298.0016572
298.0003751
297.9999945
297.9999963
297.9999569
297.9999382
297.9999913
298
297.9999946
297.9999756
298.0000135
298.0003523
298.0011742
298.0017651
298.0013656
298.0019125
298.0004714
297.9999895
297.9999841
298.0000004
297.9999961
297.9999195
297.9998317
297.9999888
297.9999786
297.9999911
297.9999978
298.0004212
298.0000044
298.00002
298.0002088
297.9999797
297.9999941
297.9999233
297.9998369
298.0001371
297.9999301
297.9999894
298.0001481
298.0001177
297.9998982
298.0006929
297.9999998
297.9999046
298.0005006
297.9999963
298.0000105
298.0000118
297.9999887
298.0000083
297.9999957
297.9999431
298.0000045
297.9999964
297.9999896
297.9999276
297.9999959
297.9999962
298.0000509
297.9999906
297.9999858
297.9999484
297.9999957
297.9999952
298.0000492
298.0000419
297.9999867
297.9999865
297.9999984
298.0000006
298.0000126
298.0000128
297.9999971
298.0000016
298.0000053
297.9999952
298.000009
298.0000079
298.0000059
297.9999975
298.0000011
297.9999888
298.0000012
298.0000038
297.9998946
298.0000464
297.9999928
298.0000418
297.9999952
298.0000177
297.9999638
298.0000026
298.0000051
297.9999963
297.9999958
297.9999961
297.9999602
297.9999385
297.9999881
297.9999963
297.9999879
297.999974
297.9999978
297.9999978
297.9999991
297.9999991
298.000102
298.0000912
298.000024
298.0000046
298.0001031
298.000126
298.0007603
297.9998977
297.9999479
298.0000305
298.0000015
298.0001279
297.9999931
297.9999818
298.0000554
297.999985
298.000006
297.9999975
298.0000199
298.0000083
298.0003882
297.999991
297.9999293
297.9999974
297.9999759
297.999992
298.0003621
298.0003691
298.0003613
298.0000802
298.0003688
298.0034562
298.0000455
298.001523
298.0144149
298.0001044
297.99996
297.9999996
298.0000156
297.9999466
298.0003579
298.0000685
298.0003668
298.0003765
298.0035047
298.0015001
298.0015224
298.0014253
298.0001927
297.9999023
298.0002253
298.0007884
297.9999756
298.0016371
298.0053817
298.0024074
298.0017005
298.0002
298.0014571
298.0002717
298.0003127
298.0014936
298.0002328
298.0002013
297.9999485
298.0051268
298.001752
298.002031
298.0020494
298.002468
298.000216
298.0030387
298.0078044
298.0011713
298.0013931
298.0056426
298.0130862
298.0013171
298.0048183
298.0115859
298.0027149
298.000757
298.0009343
298.0013252
298.0007176
298.0007181
298.0007634
298.0012388
298.0013331
298.0000729
298.0011133
298.001835
298.0013656
298.001792
298.0013079
298.0013215
298.0009811
298.0007099
298.0007051
298.0007409
298.0013017
298.0000216
298.0000286
298.0001266
298.0000073
297.9999966
298.0001247
298.0002309
298.00026
298.0186822
298.0002579
298.0002981
298.000365
298.0024911
298.0080112
297.9999917
298.0000328
297.9998712
298.0000045
297.9999938
298.0000773
297.9999922
298.0002741
298.0004323
298.0193582
298.0023557
298.0216386
298.0000365
298.0004469
298.7762564
298.0015783
298.0018388
298.0268585
298.0033562
298.0000692
298.0015628
298.0016187
298.0033974
297.99999
297.9999951
298.0000022
297.9999984
298.0000259
298.0031956
297.9999906
297.9999894
297.9999983
298.0000134
298.0000213
297.9999979
297.9999903
297.9999959
297.9999973
298.0022303
298.0000745
298.0015448
298.003452
298.0032681
298.0000368
298.0000572
298.0015647
297.9999948
298.0000002
297.9999969
298.0000296
298.0000237
297.9999969
297.9999972
298.0000032
298.0021954
298.0021802
298.0000478
298.0000035
298.0000066
298.0000065
298.0021642
297.9999381
298.0001572
298.0001176
298.0000842
298.0000012
297.9999986
297.9999997
298.0000867
297.999987
297.9999975
297.999938
298.0000493
297.9999975
298.0000032
298.0002363
298.0000218
298.0004003
298.0000032
298.0001698
298.0002606
298.0006357
298.0004089
298.0000854
298.0010744
298.0000022
298.0002302
298.0002459
298.0002023
298.0000164
298.0003048
298.0000942
298.0000569
298.0004076
298.0001323
298.0160936
298.0041142
298.0000117
298.0000413
298.0000417
298.0000413
298.0000001
297.9998872
298.0000566
298.0000399
298.0000403
297.9999851
298.0000074
298.0000044
297.9999927
298.0009597
298.0000005
298.0022083
298.0010043
298.0011273
298.0044214
298.000045
297.9999643
298.0000008
297.9999971
298.0000063
298.0000015
298.0000166
297.9999987
297.9999934
298.0009844
297.9999219
298.001132
298.0021761
298.0000081
297.9999703
297.999996
297.9999295
297.9999899
297.9999747
297.9998474
298.0000087
297.9999845
298.0000057
297.9999818
298.000069
297.9999761
298.0006407
298.0009664
298.0001709
297.9999688
298.0000142
297.9999985
297.9999986
298.0000078
298.0000029
297.9999955
297.9999375
297.999809
298.0841678
298.0022106
298.0022568
298.0061101
298.0000839
298.0001322
298.0000018
298.0000792
298.0000844
298.0000118
297.9999932
298.0002653
298.0008638
297.9999977
298.0002753
298.0002631
297.9999893
298.0023603
298.0061901
298.0058481
298.000096
298.0000774
297.9999668
298.0001092
298.0001542
298.0001377
297.9999942
298.0003164
298.0002877
298.0002649
298.0002832
297.9999868
298.0001577
297.9999781
298.0000908
297.9999802
297.999967
297.9999456
297.9999765
298.013089
298.0125743
298.00001
298.0127531
297.9999785
298.000034
297.9999625
298.0000024
297.9999432
298.0007743
297.9999741
298.0186209
297.9999923
298.0134674
298.0124061
297.9999838
298.0003196
298.0005541
298.0027295
298.0012928
298.0013442
298.0003532
298.0020333
298.0001735
298.0006648
298.0002156
298.0010535
298.0005252
298.1821321
298.0060546
298.1819915
298.0002895
298.0005535
298.1990781
298.1233859
298.0615621
298.1867675
298.249967
298.1766487
298.0880733
298.0794432
298.2371349
298.0732537
298.1339499
298.1637958
298.086051
298.0597664
298.3731428
298.1442567
298.1728191
298.046733
335.1898945
332.4734163
343.8160065
344.036116
346.8680739
331.0833751
328.3701308
330.7335678
331.6394248
330.9271747
332.7681037
330.3448138
327.6527992
299.6142757
328.4147167
329.6650965
327.7282795
330.2871962
347.7259797
367.4204415
350.8912351
429.2162868
373.2208796
403.785386
331.9989802
381.6711392
360.0967271
339.0530961
373.4653097
360.9673979
434.3423155
367.6417546
339.9763378
359.7990659
300.2383829
298.0207267
298.0094178
298.0016627
298.0018571
298.0008672
298.000234
298.0010679
298.0027665
298.0291054
298.2021698
298.1143964
298.1061945
298.0739962
298.1075569
298.2610887
298.1064217
298.1993329
298.2489514
298.0076729
298.0571978
298.0889327
298.148014
298.2705795
298.1660917
298.1542041
298.155692
298.4015239
331.3994975
329.5768611
326.0919811
330.879598
337.9924138
336.6650289
323.7116074
337.3829347
336.3493928
325.440374
334.5718399
334.1158865
344.2487866
355.1047618
374.3143364
421.6101705
390.0459213
348.773481
383.736294
421.0534309
427.222831
391.242691
523.3468881
384.1126123
355.2533196
298.0583183
298.0562394
298.0019471
298.1731166
298.0922515
298.1580446
298.0905838
298.1373902
298.01534
298.0171887
298.0442609
298.2024928
298.2177288
298.2336885
298.3871632
298.0975002
298.1560837
298.0925003
299.6002531
298.2537294
298.0175661
298.2546629
298.0450679
298.3943208
298.0463248
298.3047443
334.8773755
333.8718937
343.8137675
334.8263947
334.8379847
300.1470686
326.9875684
327.3736805
320.1741383
327.7880905
356.4690357
403.846161
404.1894656
388.9943459
381.1611711
318.5529709
352.1002549
340.3458454
376.6664849
350.596994
323.3699877
342.5253658
373.4328842
347.7908622
556.1513869
560.1033698
514.2976027
528.526343
620.422359
622.096644
433.3290442
485.7068115
500.4866347
605.6258872
345.8229714
298.0002314
298.0003502
298.0003632
298.0006275
298.0740286
298.0004915
297.9999932
298.0794662
298.0314772
298.0007577
298.0309341
298.0006571
298.0002904
298.0180881
298.0002414
298.0013289
298.0011391
298.0322898
298.2057713
298.1168699
298.119203
298.1029826
298.2584617
298.1505595
298.001185
298.0786641
298.0943575
298.1201632
298.2367985
298.2250188
298.2356425
298.0752693
298.0890548
298.1800733
298.1793567
298.1702127
298.2262626
298.1329436
334.9111107
331.4671037
327.3259162
327.2443269
333.7173997
335.1396432
331.2814179
327.6679215
323.5854618
326.4634858
351.8904441
334.9688391
334.8825103
336.1653633
336.4705806
329.793305
333.0887277
331.2718929
334.8683184
330.12295
331.1071934
358.8561017
423.4155717
381.7266141
408.5108467
381.0455663
346.4604613
354.8381638
398.8723405
385.0090748
385.0312285
329.8208669
333.144761
397.7637585
392.1159478
398.0511439
399.3824539
383.2063882
424.1534558
298.0015214
298.1595983
298.0007372
298.0612066
298.0164242
298.000181
298.2913155
298.0989619
298.0487142
298.102915
298.0451929
298.0528131
298.3380357
298.1453322
298.1492479
298.1935952
298.3100394
298.1352992
298.321474
298.0580304
298.1639915
298.1872865
298.1094424
298.2245743
298.2100991
334.8561747
323.7982522
324.9987454
327.4843843
324.3839118
324.9550172
323.1582969
332.301474
328.5602862
327.2843054
334.3599001
390.4946015
373.8618373
381.5042551
385.0906019
349.4821481
389.949213
357.8575126
368.2490205
324.5122266
360.4995604
324.5395391
335.3187419
517.7571009
366.6156163
298.0001604
298.0000973
298.000094
298.0004278
298.0911205
298.000677
298.00085
298.0952958
298.0011459
298.075187
298.1030394
298.0028471
298.0034089
298.0008662
298.0030416
298.273762
298.0656285
298.0655509
298.2795473
298.1875613
298.1814723
298.2447098
298.0035344
298.190817
298.1791143
333.7649953
332.0824609
322.4539677
333.0171514
332.864579
322.1330104
334.1012828
332.555183
333.2995079
326.4876945
328.9934953
334.9578939
414.3069656
385.534061
376.0240143
357.4423046
372.1956124
370.1539104
341.4014295
340.7631492
362.8403197
423.5401481
377.1227174
393.9752879
339.3559132
401.9853036
625.0871351
591.5203232
298.1407103
298.0006315
298.0161788
298.0006851
298.0003927
298.0005532
298.0004972
298.000149
298.0016662
298.000373
298.0703737
298.001473
298.0014366
298.001469
298.1711918
298.1223858
298.0977083
298.2741481
298.2723302
298.1699273
298.1560781
298.3130739
298.075526
298.0763507
298.1361984
298.124793
298.2245302
298.2349042
298.0533527
298.3630203
298.3775625
298.0015254
298.1955898
302.338461
331.9180129
339.8996753
331.0674525
339.369341
339.6851104
329.7482795
329.0316199
331.465486
356.6731887
331.6320583
341.8383244
341.1288516
338.8200397
338.6444435
324.8420077
337.9931902
338.2128525
337.6274433
326.1107678
356.8212354
404.2449381
342.5290203
333.2352045
499.3320093
392.7921538
392.5898726
341.6981953
398.2413916
361.529818
354.5610954
421.2022143
344.7157259
389.6461245
373.9333261
340.1025994
298.1593909
298.1644482
298.0018932
298.002602
298.0057936
298.0015932
299.4608924
298.1351341
298.0098661
299.0571087
298.0319726
298.0317931
298.0323584
298.1872852
301.2973884
298.2590325
298.2666668
298.3225709
298.127746
298.1037619
298.3102536
298.1251477
298.0763749
298.5993055
298.0704788
298.1863834
298.3245882
298.1527092
342.3722663
328.3557865
342.0949148
341.5114423
328.6169648
328.2988531
328.7601505
342.8623991
333.245586
331.9559898
505.996138
374.6912632
389.1035643
518.9244969
331.5113055
419.0806808
335.2838763
357.5422738
580.9809054
367.6442349
340.6939763
428.8724213
427.752776
298.0022066
299.8150331
298.0007409
298.0030972
298.0002472
298.0007054
298.0001983
298.0001727
298.0002038
298.0374512
298.0389003
298.0076087
298.0391073
298.0393257
298.0145582
298.1042317
298.2268098
298.166606
298.1303006
298.1391792
298.0768705
298.2207697
298.0578732
298.1140484
298.0947012
298.187885
298.142229
298.0884223
337.1332672
336.7439391
333.3418047
333.9533092
344.6308378
344.8740091
334.2341033
347.2311931
345.8826361
322.9215615
326.6112635
334.8162763
298.42575
327.0507284
324.5780057
366.7414503
340.7858818
418.1433555
346.510456
382.6645655
388.6778829
354.4379367
346.0444892
384.2766695
328.8258072
377.9324335
532.3583794
479.0210929
555.5537265
469.8987818
544.202074
547.177794
515.0514156
442.1606713
563.8048216
458.0747878
551.508668
454.9792983
630.7586935
298.2100282
298.2112749
298.0003084
298.2717639
298.2100497
298.0004261
298.1536911
298.153318
298.0857244
298.0010489
298.1530348
298.084036
298.0008546
298.0012128
298.1019408
298.0012832
298.0022255
298.00168
298.0003972
298.0002023
298.0007
298.2968515
298.0876844
298.1164955
298.0479633
298.062981
298.2721107
298.4084168
298.2046111
298.2947437
298.1726753
298.2042644
298.2925541
298.1703566
298.0064018
298.1744051
298.1053463
326.4531535
327.0289831
334.4873362
335.638163
326.0660045
327.2572015
356.5592397
327.4524477
343.5251642
340.405082
336.3560584
336.8108984
355.1833797
326.4624172
342.8069088
329.1638641
344.2666862
342.6958507
463.0368126
420.8220739
351.3886483
374.8563881
344.6716861
362.333007
399.866734
333.6393077
339.012676
391.1764736
389.485433
425.537538
413.4095323
352.2361299
379.1343066
328.4601647
438.0531317
385.9969739
359.096603
298.0006273
298.0008203
298.0006123
298.0690285
298.0137682
298.001361
298.0056754
298.0002885
298.0042995
298.0008383
298.000696
298.0747478
298.3223246
298.0702283
298.077894
298.1057644
298.438958
298.2213341
298.0055702
298.2665452
298.1288612
298.2305645
298.0968939
298.2643957
336.6569207
333.9499845
329.1495816
337.1410429
335.8871569
335.8912349
339.8349741
329.820995
333.7015077
339.9353744
341.537971
334.5788751
334.0040473
336.2198194
334.4111172
339.4429287
399.8602444
433.4245167
376.2522622
369.714571
359.402418
365.1899236
336.0132278
430.5356817
399.5333971
370.6149028
337.2867392
478.2957708
298.0006954
298.0009157
298.0003729
298.0003138
298.0049857
298.0005429
298.037703
299.7198586
298.0037366
298.0003335
298.0092441
298.0008907
298.0001776
298.0597572
298.1830385
298.1033869
298.121439
298.1234204
298.2389093
298.0908643
298.095293
298.2160125
298.0604645
298.1999095
298.1822972
298.0038157
319.401118
342.2251634
318.4811567
333.7982276
331.8514458
325.5537446
332.6075915
320.3786023
334.1783044
323.3321805
335.6528226
333.8288862
322.1872754
361.7572851
341.4306039
397.5660528
359.2650822
372.7917276
350.852437
347.0063145
342.7884136
395.8432778
406.9753512
359.4976693
365.981604
558.1932216
584.9988699
604.2300671
527.0399834
645.8296851
448.0674625
1262.279327
1280.915432
1322.714849
986.2803014
1335.978893
1305.764933
1320.783253
1320.722083
1332.932035
1258.810677
1318.225816
1321.925782
1255.80264
1254.96141
1300.70879
1339.75453
852.6138106
1278.049383
1279.820178
934.7099644
840.135634
1262.048716
1323.40128
1322.346708
961.8292006
853.426727
1331.275698
1346.123304
1341.434029
1317.88098
1319.523535
1325.770004
1345.854047
1338.734747
1308.501574
1305.086682
1357.304261
1347.29098
1332.888311
1352.144786
1351.432651
1329.72828
1320.398027
1332.734275
1322.051661
1331.663415
1304.300094
1334.072174
1333.789794
1332.38656
1325.392974
1313.246137
1305.189739
1258.873606
1258.730535
1251.043299
1287.480823
1302.23238
1251.06415
1233.939868
1298.459832
1222.881546
1261.359491
1268.770531
1255.505685
1263.431842
1302.503729
1301.737197
1307.872448
1310.090076
1305.097396
1310.724138
1307.952121
1309.018856
1288.436638
1282.871692
1270.741375
1274.319858
1281.108654
1310.108682
1304.287621
1317.618701
1317.002506
1314.94584
1318.462904
1305.246969
1311.847619
1233.973772
1298.529243
1234.255915
1234.211679
1264.059145
1287.061061
1280.514165
1209.272162
1243.328469
1237.498547
1283.952003
1265.37474
1290.409342
1247.456401
1294.934916
1247.766442
1247.520729
1283.733776
1291.25842
1308.502756
1317.215245
1280.654354
1256.788845
1297.025562
1279.182383
1296.434716
1301.849292
1338.956312
1316.081781
1336.790229
1293.224171
1300.663903
1338.386662
1330.958151
1300.092864
1271.756954
1270.206951
924.8211477
1317.852849
1274.078932
1314.342152
1274.810443
1244.76185
1317.633957
1274.023811
1291.210449
1247.244776
1294.798934
1074.810874
737.966988
1246.01676
1258.640009
1250.222679
1263.659299
749.1188144
1262.962112
1245.549764
1291.720705
1259.551999
1301.159608
1293.729259
1316.812437
1324.625517
1329.19374
1322.026587
1299.183369
1297.471739
1332.228061
1298.637427
1302.55489
1320.622884
1303.221846
1301.994227
1311.326067
1302.81847
1315.040446
1308.199087
1292.874171
1253.975769
965.1529431
1278.366179
1265.318354
1002.695036
1229.849729
1308.744149
1278.277963
1269.860846
1311.838194
1233.740216
953.9446098
971.8632737
1315.891025
1254.866441
943.0513753
1323.530736
939.1864602
1220.898767
1284.399312
1292.284913
1280.565716
1219.844598
1264.724377
1306.204905
1276.350804
1285.624375
1284.917835
1321.828763
1282.793657
1314.034624
1319.048052
1311.214464
1288.112739
1332.547522
1327.853796
1337.855265
1288.367895
1329.849322
1303.800171
1274.566147
1266.793512
1258.97858
1291.210967
1292.19985
1262.020238
1256.850995
1291.704874
1253.435579
1246.062862
1255.518042
1294.196735
1247.189261
1267.868048
1319.343231
1308.038672
1307.902025
1299.301773
1311.759581
1312.797939
1277.941696
1296.779378
1307.348384
1312.07616
1308.251271
1327.338228
1293.212096
1295.10869
1298.986741
1308.29906
1303.197666
1298.898222
1277.677156
1312.502232
1296.763859
684.900914
1252.724726
1295.596711
1282.408658
1236.665138
1279.766434
1316.242199
1252.424822
1256.889197
1240.543189
1238.201709
1279.786324
1280.24513
1297.540738
1045.107386
1272.105816
1309.828589
1267.324041
1310.950915
1345.206568
1267.263966
1306.848975
1307.838678
1324.171915
1284.798761
1330.30637
1292.054825
982.7478362
964.1270768
1327.796607
1330.325731
1333.064936
1289.598237
1287.118841
1321.979713
1302.88195
1304.071769
1283.551232
1331.383163
1326.860302
1346.929282
1353.331969
1319.184137
1317.596151
1313.572452
1352.483527
1317.353043
1319.331237
1324.618033
1332.896481
1336.702192
1335.210101
1339.818824
1339.322893
1323.187245
1330.935403
1330.573326
1339.146291
1342.05085
1341.205688
1358.703412
1322.747664
1313.545402
1336.217132
1306.53799
1300.14206
1298.880654
1291.056093
1338.386636
944.1933467
1307.024122
1274.777182
1304.026033
1264.455343
1299.713924
1355.576663
1345.765381
1327.993204
1326.809055
1345.522213
1357.006278
1346.499558
1368.116902
1366.179873
1353.073247
1349.351718
1339.229667
1317.388245
1313.731743
1314.903711
1323.602055
1315.378813
1278.107714
1355.956126
1366.915547
1341.977301
1290.457823
1221.054479
1283.123511
1214.332747
1305.172583
1261.825758
1207.06114
1306.358446
1302.37642
1258.061735
1285.195062
983.634197
1336.473872
1306.496052
806.2412539
1316.477519
1295.671067
1278.26656
1332.628728
1297.107665
1304.184631
1301.64123
1316.725691
1312.327263
1260.824757
1316.195562
1307.822224
1315.71858
1325.788596
1334.039532
1336.176841
1329.795301
1346.897175
1330.629259
1338.542572
1344.435954
1346.229284
1337.753082
1277.292601
1311.392821
1253.513139
1293.706711
1255.009514
1262.17919
1311.218588
1297.088656
1302.684784
1304.083669
1261.213796
1257.915035
1317.409124
848.4836489
1298.8754
1255.265276
1260.669859
1316.53856
1299.378111
1316.03601
1273.265862
1290.904505
1331.282148
1288.776657
1238.912337
1282.580735
1313.19659
1236.755713
1234.131285
1323.165216
1299.552779
1309.434824
1314.705702
1303.967911
1315.442247
1305.403799
1320.771381
1305.074578
1306.890535
1329.90647
1302.011752
1323.405832
1336.839334
1292.25927
1328.245634
1344.272915
1335.473101
1291.221902
1292.464874
1259.86601
1248.246375
1293.422892
1297.67895
1013.493425
1274.812479
1231.521724
1302.572649
1182.526954
1275.973159
1042.816886
1227.588123
1278.308392
1274.41996
1226.806323
1227.644746
1243.450719
1281.32496
1279.560787
1296.078719
1307.45301
1303.950318
1295.491923
1282.314732
1253.928927
1284.062653
1276.999638
1278.137247
1290.988192
1287.108002
1289.392203
1317.257716
1315.863101
1257.783194
900.5073171
779.2937391
1309.089569
1266.272058
885.0673048
1286.073043
1293.521733
1219.87319
1014.658911
1212.680591
1254.814364
1330.604347
1289.054317
924.8089771
1211.177847
1315.580812
1290.504618
1317.555255
1317.887696
1324.711445
1321.349373
1311.895459
1313.395849
1278.343938
1333.436814
1327.535016
1325.585625
1331.337574
1276.771946
1337.762084
1326.544673
1358.003857
1267.845616
1336.105219
1308.473981
1261.885885
)


// ************************************************************************* //
