/*--------------------------------*- C++ -*----------------------------------*\
  =========                 |
  \\      /  F ield         | OpenFOAM: The Open Source CFD Toolbox
   \\    /   O peration     | Website:  https://openfoam.org
    \\  /    A nd           | Version:  7
     \\/     M anipulation  |
\*---------------------------------------------------------------------------*/
FoamFile
{
    version     2.0;
    format      ascii;
    class       vectorField;
    location    "2/lagrangian/coalCloud1";
    object      torque;
}
// * * * * * * * * * * * * * * * * * * * * * * * * * * * * * * * * * * * * * //


2000
(
(3.27362899e-06 -3.014315808e-06 2.000053006e-06)
(-7.362080103e-07 3.308730968e-07 -5.912731467e-07)
(-1.047155041e-07 -1.206833607e-07 3.931153132e-08)
(1.293534587e-06 -1.166298685e-06 1.365799422e-06)
(-1.379792473e-06 -1.106792997e-06 9.212146319e-07)
(-1.907561685e-06 -2.308488399e-06 -2.249011529e-06)
(1.874961423e-06 3.314665957e-06 -1.105054458e-06)
(3.262109347e-07 -1.979191654e-06 5.753052107e-08)
(2.330257587e-06 -1.47592156e-06 -1.315555849e-06)
(-1.410852737e-06 -1.798041913e-06 8.243813971e-07)
(1.527820456e-07 -1.924288881e-07 6.951084905e-07)
(8.245492023e-08 6.419379134e-07 -4.19115863e-07)
(-1.45014372e-07 7.736293189e-07 -1.788134862e-07)
(-1.279276394e-07 2.822638487e-07 -5.905410318e-07)
(9.355483192e-07 6.05779608e-07 -9.075682534e-07)
(5.579462692e-06 -1.44250843e-06 4.15086087e-07)
(6.117247902e-08 8.399464499e-07 4.519813621e-07)
(5.919163432e-07 3.94171677e-07 3.359356991e-07)
(1.443248076e-06 2.737437415e-07 -4.948579897e-07)
(6.594470712e-07 -8.491652801e-07 2.168928649e-07)
(-3.361354791e-07 1.612785551e-07 1.096953235e-07)
(2.074505916e-06 1.756879622e-06 -1.528463708e-07)
(-1.748067875e-06 -3.568787915e-07 2.549405436e-07)
(-1.347495038e-06 1.028662028e-06 -3.470821621e-07)
(-5.736032089e-08 -3.149815367e-08 6.901877947e-09)
(-1.304694332e-06 2.180032509e-09 3.981826051e-07)
(-3.234538577e-07 1.614556724e-07 9.069676143e-07)
(-6.343537904e-07 -1.007270452e-06 -8.238928333e-07)
(3.226243759e-07 1.600334026e-07 1.456773002e-07)
(-4.564526263e-07 -1.620158194e-06 -3.441388852e-08)
(-1.976281341e-07 2.544668076e-06 8.337992629e-07)
(7.890144396e-07 3.307219394e-07 -2.650141583e-07)
(-2.227801083e-07 -5.512043185e-07 -2.860402501e-06)
(-1.780039073e-06 1.009842271e-06 -9.306817696e-07)
(1.474661609e-07 -6.297816025e-07 5.900693342e-07)
(-8.856873619e-07 -7.865795901e-07 1.441636192e-06)
(-5.668787152e-07 5.156099014e-07 9.888658243e-07)
(8.226076398e-07 -2.89313172e-07 1.254303105e-06)
(1.164803724e-06 -8.639262712e-07 -1.314745338e-07)
(1.660695522e-07 6.053993074e-08 -6.70139301e-07)
(4.681531882e-07 -6.538270909e-08 -2.184424292e-07)
(-2.705484266e-07 1.413826527e-08 -2.371985176e-07)
(-1.304008794e-06 -1.731652186e-06 1.034252264e-06)
(4.111677154e-07 8.144301402e-09 -1.157871175e-07)
(-7.154267236e-07 -7.294614045e-07 -5.139630353e-07)
(-7.706377141e-07 3.196006835e-07 7.089716676e-08)
(-1.072740911e-07 1.600265338e-07 6.017485725e-08)
(5.107209007e-07 4.401677971e-07 -8.81345615e-07)
(-5.387972485e-07 5.008505484e-07 -1.989603704e-07)
(8.289153819e-07 -3.141251212e-07 3.341950276e-07)
(1.445694773e-06 -1.861000032e-07 6.171319028e-08)
(-1.431006348e-07 -3.547423067e-07 -7.79815049e-08)
(-9.429149749e-08 -3.387971987e-07 -1.202994406e-06)
(-1.540391627e-06 2.400918711e-07 -1.399207404e-06)
(4.194554698e-08 3.107949523e-07 -1.151495466e-07)
(-3.602097438e-07 6.846047036e-07 5.210938464e-07)
(8.416736204e-07 -8.515735401e-07 -4.648506507e-08)
(-3.628588212e-07 -2.586727617e-07 7.339871598e-07)
(1.391019715e-07 2.239058276e-07 -3.672654599e-07)
(7.051379992e-07 9.645736243e-08 -1.119125072e-07)
(-6.834908554e-07 1.557383025e-07 -2.932876453e-07)
(1.114189257e-07 1.280252199e-06 -9.150745935e-07)
(-2.355531623e-07 9.80768572e-07 -5.035434245e-07)
(-9.93977645e-07 1.097053422e-08 4.08513918e-08)
(-7.547492654e-07 -1.271035553e-06 6.609458624e-07)
(2.003180944e-08 -1.721296822e-08 -5.684835508e-07)
(2.953434418e-07 3.885708771e-07 -3.722752384e-07)
(9.147318374e-07 -6.889216848e-07 1.961263188e-07)
(1.057222972e-07 2.498415957e-07 4.756695913e-07)
(1.8270987e-07 -9.804205406e-08 -4.509663184e-09)
(-5.553531163e-07 -7.283776952e-07 -6.621803492e-07)
(7.344349167e-07 3.158362409e-07 1.881286473e-07)
(-8.301621143e-07 -6.934932079e-08 2.040741268e-07)
(-2.09941762e-07 -5.141507837e-08 -2.924653677e-08)
(-4.469013024e-08 -1.502283073e-07 -1.678634682e-07)
(6.82374278e-08 -4.358295652e-08 1.079744516e-06)
(7.624356213e-08 6.349798918e-07 -6.447435431e-07)
(-3.617975953e-08 -1.009135727e-06 3.190174322e-07)
(2.157384322e-07 1.283110561e-07 -2.576146932e-07)
(-1.151840082e-06 -4.264840403e-09 3.347880372e-07)
(-1.868477294e-07 6.815943503e-07 -5.232212503e-07)
(2.864642753e-07 -3.365331422e-07 -4.671418862e-08)
(1.040585367e-06 1.015652856e-06 -1.506299471e-06)
(1.201903775e-06 -2.096935123e-07 1.802938395e-07)
(-2.704071848e-07 -2.012187017e-06 -4.868944157e-07)
(3.41694877e-06 2.432136241e-06 5.371340688e-08)
(-1.37199462e-06 1.453977093e-07 3.34204472e-07)
(5.514593393e-07 -1.766078255e-06 2.877751875e-07)
(2.32049626e-07 -1.593898706e-06 -2.404845461e-07)
(1.103280016e-06 -5.10267779e-07 -3.896972453e-07)
(3.632642186e-07 3.19189086e-07 7.401429215e-07)
(1.429614933e-06 2.855922238e-06 3.749610045e-07)
(-4.743313086e-08 1.027778942e-06 -5.236406009e-07)
(2.222115252e-06 2.289760518e-06 4.867454765e-07)
(-7.744789822e-07 -1.249683169e-06 -1.210522229e-06)
(-4.019495262e-06 -5.14771597e-06 -2.170306517e-06)
(1.068726114e-06 1.353788237e-06 6.807086434e-07)
(4.557808742e-06 -2.777604181e-06 -9.662638421e-07)
(-7.933281954e-07 1.132601619e-06 -1.392587711e-06)
(-4.715716656e-07 -4.23701099e-07 -4.320069529e-08)
(3.795404477e-07 1.172857988e-06 8.95387676e-07)
(-1.226776036e-06 1.385454173e-07 -1.473822499e-07)
(-3.58076643e-07 4.746169606e-07 -2.264944678e-07)
(-9.832792791e-07 -6.679111796e-08 8.329027304e-07)
(1.251845332e-07 -6.472300245e-07 1.35776339e-06)
(2.166566945e-06 7.796555104e-07 1.477713517e-06)
(1.551550471e-06 1.216565822e-06 1.251623488e-06)
(-1.629762257e-06 -5.059508996e-06 1.627363847e-07)
(1.158016426e-06 2.063405124e-06 2.141916866e-06)
(-1.979950224e-07 -1.386876585e-07 -2.043800074e-07)
(1.273660321e-06 1.160507949e-07 -6.917136225e-07)
(-1.655866245e-07 -4.859934475e-07 3.188281321e-07)
(1.418085153e-07 4.338328635e-07 1.148711513e-06)
(-8.43743346e-07 3.517192981e-07 -6.111302815e-07)
(-2.474028483e-07 1.063826603e-07 3.519696336e-07)
(1.11381935e-06 -1.196055139e-07 -3.545514798e-07)
(-6.853162212e-07 -1.255774766e-06 7.644115773e-07)
(-8.82011944e-08 4.624053661e-07 6.244224407e-08)
(4.160563919e-07 7.276716983e-07 -1.002151633e-06)
(4.931609849e-07 1.461210561e-06 -1.26145983e-07)
(5.606341216e-08 -4.553201656e-07 6.697612177e-07)
(-1.327561375e-06 4.974723214e-08 -1.19772396e-07)
(2.943480627e-07 -2.826240292e-06 -5.370590637e-07)
(-4.052386715e-07 5.872927132e-07 -9.875507639e-07)
(-7.429079564e-07 2.131361071e-06 -4.394310907e-07)
(-2.877058117e-07 1.294166878e-06 5.716578561e-07)
(1.831397061e-08 1.823540436e-07 8.068779716e-07)
(-2.563232141e-07 1.047688513e-07 -1.101937302e-07)
(9.60914043e-08 -3.033736353e-08 1.165733401e-07)
(-6.292292235e-07 8.594538998e-07 -2.315204506e-07)
(-7.779305238e-07 2.044204563e-06 2.28690857e-07)
(-1.676240812e-07 1.080712514e-06 8.489936243e-08)
(6.014241979e-07 -3.167909392e-08 -6.546051678e-07)
(-6.858310866e-07 -1.316525092e-06 3.542992205e-07)
(1.346586765e-06 6.05689881e-07 -6.660482002e-10)
(-2.33975539e-08 7.513561665e-07 2.111074408e-07)
(3.381509529e-07 5.485287928e-07 2.828993735e-07)
(-4.167282865e-07 7.06037019e-08 -2.167151751e-07)
(2.440343668e-06 -2.439759123e-06 1.020501291e-06)
(4.724122396e-06 3.333796182e-06 -1.759193567e-07)
(-1.110051108e-06 -1.213557534e-06 -4.264403358e-07)
(-1.363420032e-06 -6.553109889e-06 2.457890997e-06)
(4.415688541e-07 -4.54203347e-07 -2.315027948e-07)
(-2.686442079e-06 -2.416326045e-06 -1.064620163e-06)
(6.483179199e-07 2.977555651e-07 4.782208779e-07)
(5.525809267e-07 1.200940958e-06 -9.791376103e-08)
(-9.30695867e-07 -2.703304758e-06 -9.019074159e-07)
(8.202682934e-07 -1.787465024e-06 -1.465221876e-06)
(4.13035228e-08 -2.985208336e-06 -3.25085047e-07)
(1.123731273e-06 -4.969446848e-07 8.7321805e-07)
(-4.087963192e-06 -4.339337004e-07 1.264629785e-06)
(2.69945311e-06 -5.302589077e-07 4.94128043e-07)
(2.893317362e-06 -1.351043217e-06 -7.743897977e-09)
(1.280814187e-06 -3.809340445e-06 -6.425718976e-08)
(2.030331674e-07 -2.303736309e-08 3.996214923e-07)
(-6.853121574e-07 1.493887167e-07 -5.709818525e-07)
(-8.525808472e-08 -1.530335563e-06 3.59085563e-07)
(1.195079208e-06 -8.39192326e-08 -3.940482895e-07)
(1.055936067e-06 -8.128155904e-07 1.006250043e-06)
(-3.194940209e-07 1.080672252e-06 2.456969946e-07)
(1.257617926e-07 2.621430752e-07 3.672817704e-07)
(4.058019377e-09 9.333245377e-07 -1.720175657e-07)
(8.097815073e-08 2.710961618e-07 9.062775003e-07)
(-1.192343178e-07 -8.886272215e-07 -1.887493529e-06)
(6.222542989e-07 7.105249466e-07 -3.277611714e-07)
(-2.44548538e-06 -5.518682628e-07 4.037000519e-07)
(-4.003821669e-07 1.561273539e-06 7.313672158e-07)
(4.189288763e-07 -5.90242655e-07 1.398720339e-06)
(1.420565465e-07 8.769795243e-11 -6.346211922e-07)
(4.588026593e-07 2.224394467e-07 -4.551098301e-07)
(-8.371691587e-07 5.04382326e-07 6.928581329e-07)
(7.428165131e-07 3.234390929e-08 -3.443669898e-07)
(7.375657681e-08 9.816578894e-08 -2.842165393e-07)
(-8.618405259e-07 -1.118310414e-06 -9.685404762e-07)
(-4.913816716e-07 2.780766071e-07 -2.103587304e-07)
(1.438145827e-07 -5.845307532e-07 2.125611095e-07)
(-7.409048762e-07 -7.315458231e-07 -1.234506106e-07)
(7.700959835e-07 6.812771695e-07 -4.618031053e-08)
(-1.086063677e-06 -8.386279773e-07 3.458367739e-07)
(-2.57514307e-06 1.227012975e-06 6.132680364e-07)
(-9.027799307e-07 -8.862887231e-07 1.376791675e-06)
(-3.490481833e-07 -1.386364281e-07 -1.278156969e-07)
(-1.485274797e-07 -2.390261035e-08 -1.263335702e-08)
(1.359817054e-06 -7.932994932e-07 -1.75007143e-06)
(1.197149037e-06 4.325476253e-07 -7.114007114e-07)
(1.932750229e-06 1.321360355e-06 7.007527821e-07)
(-2.683948641e-08 -1.016454985e-07 3.349508709e-07)
(-6.864642523e-07 9.239300753e-08 4.436080637e-07)
(-2.862324569e-07 6.089387167e-07 -1.911826934e-07)
(2.80855556e-08 8.450180823e-07 -3.604135323e-08)
(-1.250733906e-07 -6.139748071e-07 -1.90359922e-07)
(3.749587224e-07 2.18367846e-07 -3.879958467e-07)
(1.053729642e-06 3.253449637e-07 9.444040593e-07)
(-4.552661372e-07 -9.397089155e-07 -2.1859327e-07)
(-2.045395331e-07 1.259736815e-06 8.670088651e-08)
(-3.445509384e-06 -5.655023635e-07 -8.745623051e-07)
(1.545530891e-06 -2.193816205e-06 -6.752486551e-07)
(1.334396356e-06 7.559442737e-07 -6.5097249e-07)
(-1.041921125e-06 2.930012265e-07 1.503779428e-07)
(1.165277814e-06 -1.130764496e-06 6.190828724e-07)
(2.667933885e-07 -2.19418285e-06 -1.089874329e-06)
(2.960325968e-07 -3.593479415e-06 1.79314653e-06)
(1.806495725e-06 1.944756084e-06 3.183396452e-07)
(-7.778996481e-07 -2.374487932e-06 1.047728107e-06)
(1.002064923e-06 7.474180581e-07 -9.152435787e-07)
(-1.352520792e-06 -2.583085885e-06 1.627745583e-07)
(1.315186857e-06 2.46480969e-06 -8.432743349e-07)
(-2.023202827e-07 6.57605851e-07 -1.434232306e-07)
(-4.832850639e-07 -3.478079812e-06 2.259066331e-07)
(1.95565375e-06 6.620450236e-07 -9.880220309e-07)
(-2.37063777e-06 9.208160834e-07 -2.385230141e-07)
(8.010202423e-07 -9.682521566e-07 -5.114959821e-07)
(1.163481485e-08 -1.36561799e-06 2.108505703e-07)
(-2.279018962e-06 -6.261593213e-08 1.256732256e-06)
(-1.042176208e-06 4.176437865e-07 9.99897894e-07)
(7.86412397e-07 3.84984593e-07 1.958773225e-07)
(-1.290770829e-06 1.223032826e-06 2.6888503e-07)
(1.59744538e-08 2.933766068e-07 5.17390701e-07)
(-2.080148212e-06 1.636195155e-06 -8.115174388e-07)
(-8.271761373e-07 4.742229762e-07 -1.806956688e-06)
(5.626374722e-07 2.525775564e-08 1.073731931e-06)
(-2.083188855e-07 -1.173728737e-06 -1.390061082e-07)
(4.641572545e-07 -1.145237565e-06 3.672417737e-07)
(2.293653351e-06 5.928168747e-08 -9.098897503e-07)
(1.73693138e-07 9.097516202e-07 9.891938974e-07)
(2.322279542e-07 -2.568630955e-07 -4.005595088e-07)
(-8.405414282e-07 3.30424236e-07 -7.534095373e-07)
(8.087313954e-07 1.446000841e-06 6.74865979e-07)
(-2.418882033e-06 -1.401344953e-06 -4.3815114e-07)
(9.106464317e-07 1.467005629e-06 -2.093890887e-07)
(-4.258009682e-07 8.016589669e-07 1.047033777e-06)
(9.314301617e-07 4.900374766e-07 -1.214740925e-07)
(7.324260899e-07 -2.170610475e-07 3.356872892e-07)
(-6.198480967e-07 -1.761267512e-09 7.289771819e-07)
(-1.434895313e-08 3.124712357e-07 -3.312265743e-07)
(-2.31571117e-07 3.835101981e-07 3.1854494e-07)
(-7.502321081e-07 1.261171875e-07 -1.074481021e-06)
(8.25069941e-10 8.70616131e-08 -5.173693693e-07)
(-1.714218835e-07 1.089638505e-07 -1.358382341e-06)
(-8.496429407e-07 -5.391354321e-07 -9.983234986e-07)
(-1.133678783e-07 -1.667684127e-06 5.329209625e-08)
(3.924126308e-07 -1.264455752e-07 -5.181434659e-07)
(-1.626151822e-07 2.368524161e-08 1.663913784e-06)
(8.53876287e-07 -9.068787162e-07 -4.162545809e-07)
(3.875358242e-07 -7.188319747e-08 -4.451531498e-07)
(-4.997628582e-07 2.285739913e-07 4.274640467e-07)
(1.895206582e-06 1.309916389e-06 -4.775556119e-07)
(1.567551288e-07 1.218133959e-06 -1.385631862e-06)
(-1.061029792e-06 -1.118187418e-07 -9.85612244e-07)
(1.016876748e-06 -3.085014727e-07 -5.25924683e-07)
(-3.555257099e-07 3.663720713e-07 9.534881072e-07)
(-1.114486211e-07 4.672996468e-07 1.263635751e-06)
(1.318140051e-06 -1.902289112e-07 8.79814693e-07)
(-2.409312814e-07 7.832851712e-08 5.741529311e-07)
(1.102789023e-07 1.385083523e-06 5.183146493e-07)
(-4.010466078e-07 4.620842223e-07 -6.130056415e-07)
(4.380207716e-07 -1.117011689e-07 -1.158577723e-07)
(-8.343263101e-07 -1.295547918e-06 -1.536054355e-06)
(3.588563514e-07 -3.07938461e-07 -8.153172919e-07)
(-3.940879573e-07 7.211043894e-07 -1.60091159e-06)
(-5.314094264e-07 3.059140469e-07 -2.978115782e-07)
(-3.479531449e-07 -2.500966783e-07 7.447175029e-07)
(1.484914624e-08 1.647942069e-07 -2.768852456e-07)
(-4.938076563e-07 -1.678851611e-07 7.287037467e-07)
(4.752197359e-07 5.240671616e-07 1.978444196e-07)
(3.241016385e-07 4.621681608e-07 -2.396867438e-07)
(9.837010421e-07 8.683327002e-07 4.827095066e-07)
(1.391618659e-07 7.375231731e-07 -1.658004744e-07)
(-4.502295168e-07 -1.291570532e-07 -3.489023142e-07)
(-7.620409473e-08 6.870103284e-07 -2.918120058e-09)
(-1.724500509e-06 4.551873055e-07 -1.499945471e-07)
(4.173838102e-07 4.696350618e-08 -1.734505783e-07)
(1.882632789e-06 9.763906897e-08 1.152031938e-09)
(-2.984088979e-06 -6.361239824e-06 2.114925104e-07)
(1.322760821e-06 1.19743306e-06 -8.724186208e-07)
(2.307114318e-06 -6.984878041e-08 -9.422370096e-08)
(-4.036495719e-07 7.291267893e-07 1.48730641e-06)
(-5.145772353e-07 2.601302707e-06 -1.860786786e-06)
(-1.738265583e-06 1.391092464e-06 1.733587197e-07)
(9.859592429e-07 9.378062632e-08 1.502437683e-06)
(-1.892672476e-06 1.280226763e-06 -1.212865413e-06)
(-4.407875893e-06 5.710900395e-06 3.250042684e-07)
(2.031859712e-07 5.363666753e-07 -2.7917515e-07)
(1.939395225e-06 2.472809029e-08 6.378561222e-07)
(-1.03734641e-06 4.526532915e-06 2.849159006e-07)
(4.2565256e-07 -3.477077235e-07 -2.930385312e-07)
(-3.265289595e-07 4.688830931e-07 2.912040971e-07)
(4.963673109e-07 2.508721453e-06 -8.12960603e-07)
(-1.945348913e-08 -2.12245396e-06 -8.349164684e-08)
(-6.794499285e-07 1.409597489e-06 -2.660052135e-07)
(-1.931544384e-06 1.06766123e-06 -4.078401815e-07)
(1.606596412e-07 1.973565727e-06 2.805009765e-07)
(1.457652025e-06 4.381073887e-07 -3.655762681e-07)
(1.46377464e-06 6.901373726e-07 1.717586407e-06)
(-1.457308782e-06 1.681778371e-07 -1.149772524e-06)
(-5.160629318e-09 -5.999226529e-07 6.981244376e-07)
(1.775509541e-07 -1.675661522e-07 4.523480048e-07)
(3.815958895e-07 -9.317196081e-07 -7.011445452e-07)
(2.178230254e-07 5.051940984e-07 -5.808336662e-07)
(-1.605346385e-07 9.548727217e-07 -2.989157292e-08)
(2.491427171e-06 -1.091014629e-06 1.045634571e-06)
(-2.49489194e-08 5.527937459e-08 1.256438866e-07)
(-6.153511745e-07 8.05725377e-07 3.698152801e-07)
(1.814717902e-08 5.815904879e-08 4.094730181e-07)
(1.279518689e-06 3.469977433e-07 -3.737319197e-07)
(8.672948226e-07 -6.68730145e-07 -3.585353614e-07)
(5.989664831e-08 -9.671649215e-07 3.561450747e-07)
(1.969193187e-07 3.989700313e-07 -1.852222144e-07)
(-1.052602479e-06 9.636009954e-07 4.714246368e-07)
(-4.720276958e-07 9.007823764e-07 -2.015642719e-06)
(-3.254516983e-07 -1.158204079e-06 9.156065726e-07)
(1.022166869e-07 -3.01562854e-08 -5.054856265e-07)
(1.399529532e-06 -3.908570735e-07 -1.886705545e-07)
(-5.555012197e-07 4.798458654e-07 -3.33564618e-07)
(-3.347116481e-07 -2.552857648e-07 1.04794602e-08)
(-1.316515646e-06 -1.351355635e-07 -5.280816636e-07)
(-5.145187076e-07 2.636344825e-07 1.846212331e-07)
(-6.821053114e-07 9.851206154e-07 -7.227793324e-07)
(-5.77951595e-07 -6.878815966e-07 -2.274504788e-07)
(-6.064793143e-07 2.152440512e-08 -6.516611556e-07)
(1.125291624e-06 -3.956368489e-07 -2.350734706e-07)
(9.597708112e-07 1.439554986e-07 -1.324560521e-07)
(-3.087646436e-07 -3.200115427e-07 -6.171207142e-07)
(1.397926704e-06 -5.616082139e-07 4.730421147e-07)
(-9.194078954e-07 9.23295244e-07 -8.881434097e-07)
(-2.168295505e-07 -2.251291321e-07 2.162227249e-07)
(-2.984271924e-07 1.172730164e-07 -2.02727937e-07)
(-3.822104587e-07 -3.832628821e-08 2.795707819e-07)
(-2.651020455e-07 1.421228317e-07 3.769888961e-07)
(-4.838549374e-07 -3.175218663e-07 2.328986035e-07)
(2.456469292e-07 -2.765501133e-07 2.852061796e-07)
(-1.35989527e-06 -1.486554822e-06 -6.794610507e-07)
(-1.160716366e-06 -2.805233208e-06 4.97165568e-07)
(6.281159341e-06 9.452271767e-08 -1.200601576e-07)
(-3.595853666e-06 1.688307867e-06 5.454713606e-07)
(3.872513952e-07 -8.600550221e-07 5.962050545e-07)
(9.318597412e-07 3.362793608e-06 1.258865871e-07)
(-2.569970774e-06 8.548433842e-07 6.148793827e-07)
(6.460669853e-07 3.91629419e-06 -1.792036001e-07)
(1.323882267e-06 -1.678416227e-06 2.409081482e-06)
(-5.351247381e-07 2.688341049e-06 1.343430154e-06)
(1.455849508e-06 1.390276806e-06 -1.839122622e-06)
(2.937738406e-07 -1.360329153e-06 -2.062747832e-07)
(-5.715418579e-09 -2.022044156e-08 -5.946602362e-09)
(3.413255762e-07 -1.839858161e-07 1.270623054e-07)
(-1.005683879e-06 5.704949617e-07 3.088411495e-07)
(-1.712610688e-06 -1.273493607e-06 -1.967288494e-06)
(-4.340819575e-08 5.790362611e-08 1.263436177e-07)
(1.305155353e-06 8.996351364e-07 4.846963061e-07)
(-9.50147108e-07 1.368711316e-06 5.029556967e-07)
(4.17008596e-07 -2.836445658e-09 -4.000303999e-07)
(-4.842669554e-07 1.058523325e-06 3.144782743e-07)
(1.317103858e-06 2.660660403e-06 -1.106662821e-06)
(-9.771433203e-07 1.480750301e-06 -4.266204921e-07)
(8.347855931e-08 1.197992382e-06 -2.875953502e-07)
(-2.986607582e-07 7.209428895e-07 -1.423200773e-07)
(3.491095527e-07 1.791422274e-06 1.885864147e-06)
(1.069443526e-07 -1.880953522e-06 1.152402137e-06)
(-6.113930473e-07 -1.834362072e-07 8.417668864e-07)
(-7.988895048e-07 -1.454063143e-07 -5.357126489e-07)
(-1.289079186e-07 -1.563469026e-07 2.889606516e-07)
(7.861673405e-07 2.128534552e-07 7.325671343e-07)
(4.979636446e-09 2.009131947e-07 5.058138193e-07)
(1.024924238e-06 1.012282654e-06 1.290606083e-06)
(-1.318491724e-06 6.238504276e-07 1.861914899e-07)
(-8.53700222e-07 -1.540829944e-06 -4.212262958e-07)
(5.146586139e-07 -2.019549378e-06 2.132117582e-07)
(1.090435011e-06 -1.588378325e-06 -1.331208122e-07)
(-2.797545868e-06 5.381608963e-07 -1.676767219e-06)
(2.008465823e-06 -1.576772461e-07 9.681830987e-07)
(-2.832053829e-06 1.125205412e-06 -7.804864319e-07)
(-6.810153342e-06 -3.766857471e-06 -4.277120846e-06)
(1.5395651e-06 -6.452062201e-07 2.336620488e-06)
(-3.948842777e-07 -4.020223174e-07 -6.678545676e-08)
(1.851820433e-06 -1.265248941e-06 -3.001204197e-07)
(-5.027617866e-07 4.816629699e-08 3.272322757e-07)
(1.997799017e-07 1.993206949e-07 3.374222563e-07)
(-4.088558155e-08 -3.629019732e-07 8.724058363e-07)
(-1.89623042e-08 1.381569394e-06 -4.948705271e-07)
(8.645868228e-07 1.046777437e-07 1.318529243e-07)
(1.002706746e-06 -2.655428102e-07 -4.98981424e-08)
(-1.846842847e-07 -1.804158393e-06 2.060067528e-07)
(-7.165756035e-07 -1.398423187e-06 2.646476283e-06)
(-6.932287503e-07 9.877285376e-07 -6.177532857e-07)
(1.644141399e-07 -1.138818118e-06 3.420491378e-06)
(-1.035444851e-06 1.487288596e-06 1.173187466e-08)
(4.723813815e-07 -4.074712855e-08 -3.393804945e-08)
(-6.525068468e-07 5.590614173e-07 -4.656907611e-07)
(8.838883215e-07 1.135667946e-06 -1.594520111e-08)
(-1.923562543e-06 9.960305978e-07 -8.319547709e-07)
(6.643066951e-07 -2.785873281e-07 -4.389101914e-07)
(-8.41100275e-07 4.619686656e-07 1.723974271e-07)
(-6.391057223e-07 5.677127039e-07 -7.494470832e-08)
(2.007352377e-06 3.60806524e-07 8.787140622e-07)
(9.589023502e-07 2.400873041e-07 6.001120993e-07)
(1.971986191e-06 -1.061764401e-06 4.649704405e-07)
(-1.297828381e-06 -2.745133117e-07 6.474502479e-07)
(4.142224807e-08 -2.570306827e-06 8.57559848e-07)
(1.267007501e-06 1.217719305e-06 -2.55456691e-07)
(2.711919195e-06 1.94426285e-06 -3.119464571e-08)
(1.12453769e-06 2.722132968e-08 -6.818794866e-07)
(1.403746534e-06 -1.688697873e-08 5.662168569e-07)
(1.71901367e-06 3.244193064e-07 9.437661223e-07)
(-2.699408276e-07 -1.328374524e-06 3.302714456e-07)
(-2.538502821e-06 -2.157139764e-06 9.686744385e-07)
(-5.133911779e-07 7.383350602e-07 -9.166399019e-07)
(-1.180242278e-06 -1.83726857e-06 7.585672197e-07)
(-1.653616235e-06 6.730457724e-06 7.729281737e-07)
(7.881682839e-07 -5.933890762e-07 3.280256015e-07)
(-3.626066388e-07 8.697702921e-07 -3.07068887e-07)
(-1.849809457e-06 -3.447768434e-07 -8.408370311e-07)
(-1.372385074e-06 -1.081704433e-06 -8.441727536e-07)
(-2.31134964e-06 7.968152655e-07 -5.608059357e-07)
(1.242054519e-06 6.272469802e-07 -3.588288302e-07)
(-2.681428294e-07 -6.212770053e-07 9.985498885e-07)
(-7.805694119e-07 7.433538876e-07 -1.959041592e-07)
(-1.937944411e-07 8.415183704e-08 -4.017048343e-07)
(-7.078270227e-08 -8.418451161e-07 6.171380372e-08)
(1.402334203e-06 -2.879245394e-07 -9.426709273e-07)
(3.070881166e-07 1.77892715e-07 3.793937666e-07)
(5.929370026e-07 1.005684973e-06 9.050444796e-07)
(4.053242939e-07 -2.944253206e-07 -6.236062419e-08)
(-5.005062765e-07 9.795520121e-07 -6.747343199e-07)
(6.122661167e-08 -2.313227433e-08 9.268068367e-07)
(1.447255247e-07 8.828732048e-07 -1.718754109e-06)
(-2.570312824e-07 -4.370955247e-08 -2.003470916e-07)
(-1.240965873e-06 1.253874031e-08 -9.712300298e-07)
(-1.449835511e-06 -1.172425984e-06 -4.151607759e-07)
(8.299369916e-07 3.614436125e-07 -1.766253897e-07)
(1.665239904e-07 2.373992835e-06 5.192653124e-07)
(1.488312219e-06 1.200480012e-07 1.488324098e-07)
(-7.646970226e-07 6.270902437e-07 -4.167492699e-08)
(5.051838728e-07 -9.326131819e-07 -1.048489031e-06)
(1.185693693e-06 -1.501845961e-07 -4.941281326e-07)
(8.165831996e-07 4.247787457e-07 2.816734696e-08)
(1.489948256e-06 -9.631455784e-09 4.145657565e-07)
(-7.961297577e-07 1.440472691e-08 4.074735802e-07)
(-8.279681755e-07 2.438186387e-07 5.445990299e-07)
(3.860873413e-07 2.011745464e-07 3.418607217e-07)
(-9.844576418e-08 5.047351496e-07 -2.96674153e-08)
(3.149299649e-07 3.056570993e-07 3.432797558e-07)
(2.836937849e-07 -2.463659755e-07 2.894914295e-08)
(-9.660255427e-07 -5.354754738e-07 -1.275783227e-06)
(7.539602713e-07 6.706448185e-08 -6.868602233e-07)
(-1.831868778e-07 -1.274366625e-07 1.756007759e-10)
(-7.192090849e-08 -9.44108187e-07 4.694441773e-07)
(4.277343045e-07 -3.67352493e-07 7.631346039e-07)
(-6.671524814e-07 1.189246074e-07 8.824802481e-07)
(1.47543521e-07 1.55292653e-07 -7.105486413e-08)
(5.042209223e-07 -5.604974673e-07 -4.906922482e-07)
(-2.855548376e-07 3.511925097e-07 -6.313232404e-08)
(-1.951828972e-08 -2.541842556e-07 4.678884987e-07)
(4.160237604e-07 -4.895315623e-08 8.233679597e-07)
(1.190529013e-06 1.383568453e-07 -7.114673311e-07)
(-2.216254947e-07 7.669811829e-07 4.908753593e-08)
(6.121453856e-09 -4.843510196e-08 -9.931872717e-07)
(-6.511829922e-07 1.222668921e-06 4.4680536e-07)
(3.43637181e-07 1.013550719e-07 -3.446284401e-07)
(3.776994305e-07 -4.653852054e-07 2.116499098e-07)
(-5.968458408e-07 -7.645266181e-07 2.615959002e-07)
(-2.850998517e-08 -1.854467444e-07 -1.846477256e-07)
(3.367805025e-07 -6.317599073e-08 1.872668617e-07)
(1.0510911e-07 1.215032292e-06 -7.138595077e-07)
(1.171566672e-07 -1.054848771e-07 8.261546535e-08)
(-9.010039409e-08 -2.720764219e-07 -2.309435758e-07)
(4.43965468e-07 7.966897887e-08 9.81906405e-09)
(2.112552063e-07 4.157672644e-07 3.979028752e-07)
(-3.779772162e-07 4.853448811e-07 -2.410568068e-07)
(-3.377709186e-07 9.52402147e-08 -2.633494632e-07)
(-1.773336558e-07 -8.254113973e-07 -1.315122805e-10)
(-5.395375043e-07 1.139444221e-07 4.230924239e-07)
(1.500456196e-06 -7.816615269e-07 3.349824692e-07)
(7.829075242e-07 -1.550494061e-06 -7.599399798e-07)
(1.017442587e-06 1.342749076e-06 -1.140193201e-06)
(2.990241395e-06 -8.030680886e-07 -7.138824774e-07)
(-1.83442539e-06 -1.324729297e-06 9.004043659e-07)
(-1.709516151e-07 -4.494253596e-07 2.715749953e-06)
(-3.495074957e-06 -1.884761533e-06 6.375725814e-07)
(7.572429637e-07 -3.890492646e-06 -2.701428023e-06)
(-1.715400236e-06 -1.124057836e-06 4.062616476e-07)
(-1.995351071e-06 -1.419171526e-06 3.030482725e-07)
(8.156079964e-07 8.111882809e-07 -4.809412615e-07)
(3.11964296e-06 -4.213457102e-06 -3.226061314e-07)
(-2.183643761e-06 -2.082887817e-07 6.053696098e-08)
(6.371815986e-08 -8.930098485e-08 -4.227567142e-09)
(7.135446229e-07 -7.91786408e-07 1.915851917e-06)
(-1.806532223e-06 -1.977507056e-06 1.155601595e-06)
(1.23764846e-06 -1.272476055e-06 -3.531094202e-07)
(4.4942426e-07 2.970666722e-07 5.055272255e-07)
(1.756052097e-06 -1.079294456e-07 1.051121776e-06)
(1.475266565e-08 2.646889103e-07 2.766335351e-07)
(-5.776202244e-07 2.203129306e-06 6.683656199e-07)
(2.316518261e-06 -4.793899658e-06 -2.536025221e-07)
(-3.813439584e-07 3.473070658e-07 -1.557646181e-07)
(7.487035408e-07 -1.857940968e-06 7.868674446e-07)
(-9.204565679e-08 1.772674702e-07 -5.744226827e-08)
(-1.388446197e-07 1.547596165e-07 6.778772691e-07)
(-2.097760378e-06 1.412635186e-06 -9.959351514e-07)
(7.229326357e-07 -1.962424906e-06 -4.803442467e-07)
(4.563493617e-07 -1.869156567e-07 6.469988407e-07)
(1.897392955e-08 1.098128812e-06 1.848178583e-07)
(-2.358953691e-06 -4.089364672e-07 -9.85934815e-07)
(-9.058362173e-07 -1.260221021e-06 1.158189727e-06)
(4.125084675e-07 7.607369433e-07 1.364637524e-07)
(-1.157609304e-06 -1.339342356e-06 3.975173994e-07)
(6.248331874e-07 9.151429755e-07 -3.487517039e-07)
(1.591753059e-07 1.703790697e-07 -2.805086556e-07)
(4.257085894e-07 -1.173058027e-06 -1.143987233e-07)
(-1.334623334e-06 1.190894836e-07 9.237627842e-08)
(2.948852354e-07 2.8848727e-08 3.844231401e-07)
(-3.25847432e-07 6.400045842e-07 2.000071942e-07)
(5.643045795e-07 1.196743208e-07 -2.573367226e-07)
(-3.931970161e-07 -6.703506416e-07 3.402109837e-07)
(1.600923811e-06 2.321159968e-06 -3.512708476e-06)
(1.732401912e-06 1.30916001e-06 -3.453651495e-06)
(-6.404019699e-07 1.318926606e-07 -8.894885143e-07)
(1.328621903e-08 -1.254770464e-07 2.854571948e-08)
(-8.011389994e-08 -3.178507214e-07 -6.689123294e-08)
(1.481887965e-07 -6.940257336e-07 2.622913446e-07)
(-9.635837682e-08 -1.122794194e-07 -1.893802946e-07)
(-6.877151731e-07 7.918315071e-08 2.470162241e-07)
(5.458839365e-08 6.333639955e-07 -5.070957674e-07)
(3.142490144e-07 4.652809814e-07 -2.487476408e-07)
(2.660969678e-07 -1.592477098e-06 -2.5003356e-08)
(3.62199846e-07 -8.784404408e-07 -2.223147554e-07)
(3.87530969e-07 -1.628679794e-07 3.680598652e-07)
(8.44280195e-08 2.028117946e-07 -1.025438512e-07)
(1.948801321e-07 -9.764411255e-07 -4.274201953e-07)
(4.914344332e-07 5.065332378e-07 8.811742217e-07)
(-1.444661544e-07 1.995414642e-08 -1.120898672e-07)
(-5.19501203e-07 8.892822471e-07 1.554810135e-08)
(-6.496011979e-07 -4.869494325e-08 -3.451009668e-07)
(-5.031700249e-07 -9.028982588e-07 9.340987868e-07)
(-4.319385044e-07 6.49499426e-08 2.731823913e-07)
(3.622886287e-06 3.368372285e-06 3.879126128e-07)
(-5.494369376e-07 -8.063936551e-07 2.58015206e-07)
(3.178686309e-07 1.297722283e-06 1.398011988e-07)
(-1.786614432e-06 -4.467648427e-07 7.964920083e-08)
(1.238380679e-06 -9.57790289e-07 2.28025036e-07)
(-8.270322208e-07 -7.955745855e-07 1.696664869e-07)
(-3.324518898e-07 -5.338726628e-07 6.861827327e-08)
(-7.370372835e-07 7.016517042e-07 9.003538785e-07)
(1.143813735e-06 -5.229052348e-08 -7.767890807e-07)
(5.529675804e-07 -7.744014223e-07 1.088742739e-06)
(-1.801030608e-08 -2.985081673e-07 -7.179496606e-08)
(2.227976554e-07 6.717232759e-07 -8.070240832e-07)
(7.702924061e-07 -3.013010107e-07 -9.093605907e-07)
(-1.507886031e-06 -6.415279558e-08 1.412012951e-06)
(-1.61842728e-06 -8.302867996e-07 1.668113171e-06)
(-1.046704786e-07 -1.579832644e-06 4.662255924e-07)
(5.176868104e-08 2.023832393e-09 -3.772241473e-07)
(2.968179944e-07 2.891191223e-07 -5.078369498e-08)
(-1.610670575e-07 1.655030533e-07 5.065222859e-07)
(1.510641762e-06 -1.973258044e-06 4.124092981e-07)
(-5.969262907e-08 -1.563280951e-07 6.020830256e-07)
(-1.226706576e-07 -1.102910564e-07 3.254330742e-07)
(7.003990649e-08 3.047668581e-07 -2.334297539e-07)
(1.753219502e-07 9.689508051e-07 2.684724235e-07)
(2.137233507e-07 -3.932168175e-07 -2.925479794e-07)
(-1.334198195e-07 -1.413517231e-08 1.08313292e-07)
(-5.264778914e-07 -2.269301411e-07 -2.031311929e-07)
(3.941541836e-07 -4.313847857e-07 -1.246578244e-06)
(1.878015135e-07 -1.367473834e-07 4.389028465e-07)
(2.101481674e-07 -8.083461364e-08 -6.271655072e-07)
(-3.372847032e-07 -4.623915407e-07 1.134537945e-07)
(-1.182101377e-07 -3.305531277e-07 2.242104347e-07)
(-1.908545203e-07 7.702693832e-07 1.947737119e-07)
(1.456063858e-06 -2.642739711e-07 5.744571154e-07)
(-2.314944557e-07 1.919245833e-07 3.088239461e-07)
(-5.360799448e-07 -5.183218374e-08 -1.403238622e-07)
(1.527534082e-07 -5.021415604e-07 -4.217684165e-07)
(-4.427841714e-07 -9.727337641e-08 1.24190527e-06)
(-5.054595965e-07 -9.521858908e-07 2.32809732e-07)