/*--------------------------------*- C++ -*----------------------------------*\
  =========                 |
  \\      /  F ield         | OpenFOAM: The Open Source CFD Toolbox
   \\    /   O peration     | Website:  https://openfoam.org
    \\  /    A nd           | Version:  7
     \\/     M anipulation  |
\*---------------------------------------------------------------------------*/
FoamFile
{
    version     2.0;
    format      ascii;
    class       scalarField;
    location    "2/lagrangian/coalCloud1";
    object      Tp0;
}
// * * * * * * * * * * * * * * * * * * * * * * * * * * * * * * * * * * * * * //


2000
(
297.9999992
297.999986
297.9999764
297.9999875
297.9999298
298.0000053
298.0000715
297.9999933
297.9999894
298.0000161
298.0004058
298.000288
298.0000557
297.9999934
297.9999796
298.0000699
298.0391378
298.0004504
298.0003913
297.9999917
298.0000028
298.0000069
298.0000179
298.0003071
298.0000095
297.9999994
297.999989
297.9999965
297.9999624
297.9999417
297.9999904
297.9999398
297.9999915
298.000004
298.0000514
298.0000049
297.9999914
298.0000005
298.0009033
298.0000571
298.0000053
298.0000122
298.000021
298.0002992
298.0000106
297.9998555
297.9999448
297.9999658
298.0000048
297.9999818
298.0000046
297.9999963
297.9999342
298.0000392
297.9999638
297.9999986
298.0000019
298.0000082
297.999983
297.9999979
298.002215
298.0020617
297.9999815
298.0026667
298.0020757
298.0000511
297.9999453
297.999965
298.0000015
297.9998258
297.9999795
297.999997
297.999995
297.9999455
298.0000022
298.0000735
298.0060129
298.0000534
297.9998999
297.9998744
298.0019838
298.0000444
298.0004849
298.0467065
298.0000612
298.0004335
298.0004654
298.0001305
297.9999959
297.9999725
297.9999979
297.9999648
297.999925
297.9999894
297.999982
297.9999296
297.9999854
297.9999723
298.0004399
298.0008876
298.0000884
298.0004585
298.0005598
298.0000042
297.9999818
297.9999885
297.9999762
297.9999583
297.9999101
298.0030661
298.0028512
298.0002942
298.0033491
298.0027723
298.0000367
298.0000833
298.0000333
297.9999813
297.9999908
297.9999632
297.9999989
297.9999898
298.0000055
297.9999836
297.9999306
298.0087238
298.0047026
298.0006953
298.005301
298.0028475
298.0000022
298.0000282
297.9998284
297.9999962
298.0000152
298.0001705
298.0000099
297.9999971
298.000005
297.9999343
297.9999865
297.9999771
297.9999993
297.9999738
297.9999932
297.9999967
297.9999782
297.9999875
297.9999902
297.9999463
297.9999735
297.9999759
297.9999037
297.9998996
297.9999765
298.0000061
297.9997729
297.9999971
297.9999798
297.9999983
298.0000027
297.9999828
297.9999792
297.9999918
297.9999778
297.9999195
297.9999772
298.0000179
298.0000166
298.000055
298.000054
298.0000397
298.000021
298.0002771
297.9999874
298.000006
297.9999306
297.9999782
297.9999468
298.0000203
297.9997319
298.0000702
298.0000068
297.9999742
298.000052
298.0002961
298.0000265
298.000008
297.999969
297.9998648
297.9999971
297.9999413
297.9999746
297.9999931
297.9999709
297.9999829
297.9999886
298.000067
298.0003595
297.9999923
298.0002792
298.0000712
298.0000232
298.0044107
297.999966
297.9999633
297.9999964
298.0000297
297.999979
298.0001258
298.0004951
298.0003531
298.0108252
298.0001482
298.0000933
297.9999829
297.9999894
298.0000041
298.0003216
297.9999714
298.0000131
298.0002762
298.0000064
298.0000497
297.999978
297.9999756
298.0000011
298.0000102
298.0000631
298.0004158
298.0000843
298.0000889
298.0003173
298.0004168
297.99995
298.000008
298.0000005
297.9999639
297.9999952
298.0000002
298.0000066
298.0000001
298.0000094
297.9999983
297.99999
297.9999726
298.0000112
297.999994
297.9999971
298.0003362
298.0000208
298.000636
298.0003366
297.9999916
298.0000027
298.0000034
297.9999203
298.0000103
298.0000113
298.0000073
298.0000406
297.9999863
298.0000258
297.999992
298.000013
297.999995
298.0000044
298.000005
297.9999571
298.0000854
297.9999808
298.0003815
298.0003401
298.0001329
298.000298
298.0021985
298.0003077
298.0000544
298.0000832
298.0203329
298.0000046
298.0000859
298.0008812
298.000039
298.0096581
298.0000133
297.9999821
298.0000445
298.000035
297.9999731
297.9999789
298.0002847
298.0002085
298.0000208
298.0001036
298.0005322
298.0002062
298.0001526
297.9999864
297.999973
298.0000279
298.0019617
298.000019
297.9999888
297.999991
297.9999854
298.0000248
298.0000259
297.9998845
298.0001869
297.9999335
298.000049
297.9999766
297.9997861
298.0000626
298.0000765
298.0000416
298.0000032
298.0001889
298.0000081
297.9999734
297.9999932
298.0007508
297.999976
298.0002234
298.0004114
298.0000199
298.0001367
298.0000778
298.0000752
297.9997575
297.9999842
297.999976
297.9999334
297.9999899
297.9999957
297.9998553
298.0000026
297.9999842
297.9999576
298.0002965
298.0000771
297.9999908
298.0415493
298.0004374
297.9999355
297.9999768
297.9999818
297.9999029
297.999874
297.9999679
297.9999918
297.9999758
297.999936
298.0000069
297.9999506
298.0006433
298.000713
297.9999614
298.0010236
298.0001899
297.9999748
297.9999648
298.0000011
297.9999918
297.9998485
297.9995646
297.9999683
297.9999631
297.9999764
297.9999833
297.9999723
298.0000048
298.0000303
298.0004295
297.9999464
297.9999861
297.9998532
297.9997096
297.9999643
297.999868
297.9999682
297.9999865
297.999984
297.9997297
298.0000045
297.9999858
297.9998045
298.0001734
297.9999833
298.0000021
297.9999972
297.9999651
297.9999972
297.9999857
297.999842
297.9999979
297.9999865
297.9999697
297.9998553
297.9999848
297.9999874
298.0000117
297.9999759
297.999965
297.9998538
297.9999837
297.9999839
298.0000031
297.999992
297.9999644
297.9999564
297.9999917
297.9999902
298.0000024
297.9999939
297.9999893
297.9999935
297.9999928
297.9999848
297.9999996
297.9999965
298.0000031
297.9999897
298.0000014
297.9999771
298.0000011
298.0000083
297.9997945
298.0000066
297.9999767
297.9999918
297.9999859
298.0000165
297.9999358
298.000007
298.0000136
297.9999906
297.9999863
297.99999
297.9999143
297.9998689
297.9999741
297.9999903
297.9999674
297.9999439
297.9999945
297.9999936
297.9999977
297.9999967
298.0002378
298.0002074
298.0000476
298.0000057
298.0002428
298.0002317
298.0005724
297.9997761
297.9999095
297.9999922
297.9999966
298.0000066
297.9999775
297.9999501
297.9999355
297.9999584
298.0000024
297.9999833
298.000023
297.9999971
298.0002323
297.9999708
297.9998606
297.9999875
297.9999492
297.99998
298.000048
298.0000641
298.0000561
297.9999871
298.0000496
298.0006713
297.9999934
298.000494
298.0327954
298.0001474
297.9999034
297.9999899
298.000026
297.9999
298.0000515
297.9999817
298.0000593
298.0000672
298.0008285
298.0005648
298.0006072
298.0005526
298.0003055
297.9998204
298.0004306
298.0016044
297.9999265
298.0007808
298.0036156
298.0013725
298.0009405
298.0002752
298.0003953
298.0002668
298.0004876
298.0014589
298.0003722
298.0002756
297.9998837
298.0050213
298.0026859
298.0016234
298.0015339
298.0010394
298.0000179
298.0022004
298.0039297
298.000329
298.0003623
298.0113879
298.0244381
298.0002476
298.0077986
298.0265663
298.0037471
298.0001487
298.0006647
298.000223
298.0000807
298.0000822
298.0001575
298.0001543
298.0003665
298.0000592
298.0003328
298.0006309
298.0004627
298.0006323
298.0002928
298.0003335
298.0001916
298.0000914
298.000093
298.0000874
298.000177
298.0000409
298.0000621
298.0002357
298.0000099
297.9999863
298.0002547
298.0003022
298.0002551
298.0022743
298.0003447
298.0002615
298.0004585
298.0059751
298.0047826
297.9999779
298.000057
297.9996785
298.0000052
297.9999819
298.0000095
297.9999339
298.0003269
298.0003238
298.0023514
298.0019103
298.0039015
298.0000324
298.0002718
299.3152238
298.0005741
298.0012949
298.0667665
298.0014996
298.0000114
298.0005262
298.0006559
298.0015041
297.9999709
297.9999849
297.9999921
297.9999823
298.0000069
298.0011677
297.9999727
297.9999693
297.9999923
297.9999914
298.0000011
297.9999843
297.9999739
297.9999722
297.9999817
298.0003966
298.0000408
298.0005411
298.0018277
298.0013373
297.9999694
298.0000052
298.0005577
297.9999847
297.9999989
297.9999836
298.000016
298.0000095
297.99999
297.9999894
297.9999975
298.0003727
298.0003785
298.0000955
297.9999949
298.0000038
298.0000001
298.000373
297.9998642
298.0004046
298.0003095
298.000217
297.9999987
297.9999872
297.9999912
298.0002119
297.9999725
297.9999929
297.9998808
298.0000942
297.999992
297.9999926
298.0003794
298.0000312
297.9999577
297.9999951
298.0002643
298.0002352
298.0000915
297.9999958
298.0002168
298.0002302
297.9999976
297.999923
298.0000066
298.0000206
298.0000319
297.9999408
297.9999489
298.0000909
298.0000396
297.9999165
298.0036579
298.0026886
298.0000124
297.9999939
297.9999953
297.9999932
297.9999683
297.9997505
297.9999987
297.9999906
297.9999897
297.9999453
297.9999983
297.9999953
297.9999711
298.0000773
297.9999765
298.0003856
298.0001523
298.0004547
298.0055708
297.9999929
297.999916
297.9999771
297.999981
297.9999895
297.9999941
298.0000113
297.9999891
297.9999696
298.0001549
297.9997714
298.0004865
298.0004753
297.9999882
297.999935
297.9999912
297.9998505
297.999981
297.9999508
297.9997458
298.0000062
297.9999702
298.0000122
297.9999589
298.0001381
297.9999422
298.0000631
297.9998218
298.0000223
297.9999263
297.9999619
297.999996
297.9999729
297.9999502
297.9999976
297.9999731
297.9998588
297.9995925
298.0497666
298.0005173
298.0004638
298.0010961
297.9999727
298.0000702
297.9999696
297.9999684
297.9999825
298.0000202
297.9999772
298.0000401
298.0016174
297.9999918
298.0000698
298.0000499
297.999977
298.000783
298.0013098
298.0010579
298.0000101
297.9999685
297.9998733
298.000002
298.0000395
298.000048
297.9999805
298.0000645
298.0000405
298.0000544
298.0000707
297.999972
298.0003374
297.9999438
298.0001435
297.9999616
297.9999162
297.999833
297.9999154
298.0036953
298.0028534
297.999956
298.0031134
297.9999011
298.0000774
297.9998839
297.999994
297.9998633
298.0013253
297.9996934
298.0069751
297.9999359
298.0052936
298.0032795
297.9999671
298.000121
298.0001036
298.0031131
298.0027262
298.0009441
298.0000327
298.0025426
298.000171
298.0002257
298.0000588
298.0010462
298.0002326
298.0218637
298.0061014
298.0229901
298.0004071
298.0004705
298.0545553
298.0226658
298.0200425
298.0723163
298.0595238
298.0341224
298.0176794
298.0155738
298.0489572
298.017631
298.0240822
298.0348643
298.0112231
298.0110045
298.0717726
298.0338937
298.039265
298.0125641
305.9276368
304.2643413
304.5800842
306.0089383
305.3573781
303.8854505
303.444968
304.3533433
303.9510386
303.8233676
304.3360925
303.4742248
303.2997607
300.5562845
303.8362306
303.7140101
303.3910132
303.8944035
308.8361961
313.2938816
309.7876499
322.3118914
312.523799
312.9259035
307.5571589
312.502138
309.9208368
305.6402751
312.1628079
309.3759093
312.9440225
312.1987099
308.9678395
309.7069602
303.4009081
298.0078604
298.0055305
298.0041248
298.001796
298.0002947
298.0000955
298.0003559
298.0033933
298.0561891
298.0198127
298.0704654
298.0251775
298.0178281
298.0722645
298.0627378
298.0184776
298.0434114
298.0449338
298.0154974
298.011261
298.0121562
298.0350093
298.056721
298.0230672
298.0324514
298.0494642
298.053188
304.3307826
303.8050217
302.8769147
304.1616287
305.0870901
304.7767898
302.7232142
304.9436881
304.6913837
303.0029638
304.68385
305.1768063
306.1052058
307.5658864
310.3386635
313.0508053
310.8031644
306.8992734
310.5253146
314.4025892
313.5538399
310.8271977
342.7452864
311.4015678
309.1161152
298.0052315
298.0049166
298.0024383
298.023566
298.0113682
298.0151179
298.0111811
298.0195341
298.0013175
298.0035952
298.0065833
298.0380646
298.0364901
298.0366783
298.0713881
298.0182113
298.0238247
298.0119585
300.9249204
298.048465
298.0031868
298.0411428
298.0093109
298.1209312
298.0086621
298.0574457
304.4356985
303.983222
305.9447479
304.386359
304.4456038
301.7717894
304.0410511
303.5034817
301.8553592
303.615105
308.3331898
311.3657138
312.1011678
311.2296981
310.7771266
302.8141999
307.1393054
305.1800766
310.9249313
307.0533769
306.0470245
307.4545072
311.3386583
306.3479052
595.9699778
689.4904509
388.909153
498.506158
599.1695594
693.3586841
314.6374249
397.114071
373.1499999
611.3104099
306.2381297
298.0000015
298.0001082
298.0000634
298.0001351
298.016532
298.0001774
297.9999736
298.0129904
298.0018561
298.000133
298.0019754
298.0007964
297.9999704
298.0037708
298.000581
298.0008509
298.0008841
298.0670711
298.0448786
298.0181774
298.0222802
298.0173124
298.0518553
298.0311483
298.0005702
298.0143498
298.0114062
298.0117243
298.0808917
298.0408857
298.0610169
298.0229796
298.0209723
298.0362623
298.0311163
298.0928936
298.0585439
298.0263127
305.9190222
303.8082152
303.2316723
303.2330111
305.6981336
306.10685
303.8045811
303.51409
302.3591273
303.3870668
307.8556758
304.4998831
304.4965448
304.874459
306.330042
304.0765709
305.8161736
303.7601708
305.0597349
304.2195129
303.6878454
307.1173261
312.3603867
311.0154792
314.0932733
310.7121324
304.2133561
307.4894091
311.5332686
310.6332286
310.9487268
303.7478174
305.4105229
312.0262963
312.1659876
311.9711758
313.6960505
309.8765402
312.5108156
298.0011065
298.337161
298.0010474
298.0108406
298.0031191
297.9998159
298.5057079
298.0201591
298.0173917
298.008107
298.0095335
298.0291513
298.4251686
298.034951
298.0300534
298.0345651
298.0678799
298.032153
298.0576732
298.0111295
298.0467356
298.0244899
298.0212099
298.0625752
298.0326327
304.4412198
302.3277197
302.8606178
302.6877651
302.7016396
302.3702266
302.9101123
304.674585
303.529804
303.2096452
304.1400524
310.9404017
311.1520035
311.040507
310.5729889
307.5885732
311.2069481
306.8883562
309.7193332
303.7668301
308.2476868
303.2386989
308.1799126
410.3501976
312.7218808
298.0000579
297.9999971
297.9998015
298.0001306
298.0155355
298.0000677
298.0002586
298.0143621
298.000357
298.010631
298.013208
298.0007046
298.0007435
298.0004519
298.0047529
298.0455645
298.0121044
298.0123989
298.0548261
298.044912
298.034736
298.0644729
298.0005077
298.0231161
298.0386338
304.2050929
303.8987327
302.3848077
304.0634395
304.041162
302.3110258
304.4795429
303.9552876
304.0598542
302.9888497
303.6183021
304.4766131
311.661305
310.1480776
310.5740829
308.922621
310.0142097
309.5722185
306.4760599
305.5983407
309.199047
312.4377944
310.6439519
310.9329888
305.5743683
311.8755436
706.1906639
663.6036352
298.0232647
298.0001414
298.0053665
298.0003085
298.0000881
298.0004751
298.0003266
298.0000627
298.0016347
298.0002932
298.016098
298.0015873
298.0011527
298.0016626
298.0237722
298.0316269
298.0168235
298.096396
298.2780085
298.0294115
298.058594
298.1078902
298.0158981
298.0155959
298.0293131
298.0240992
298.0435423
298.065363
298.010443
298.0516843
298.0590199
298.0018317
298.0578499
304.6613257
304.314643
305.2260821
304.2156829
305.0700599
305.2288935
306.6627439
303.7099159
304.1027914
312.3929536
304.1625476
305.6202052
305.5677797
306.2320044
305.9369906
302.7412223
305.8433471
305.8772976
305.2741562
303.134239
308.7059032
311.1545955
308.3095643
305.6568387
372.1983947
312.5819426
310.3631511
307.6623832
310.6408712
309.4965485
307.4080585
313.0936804
309.6263768
310.9046127
310.8123499
307.0167881
298.0145991
298.0246155
298.0029939
298.0050501
298.0091359
298.0029059
301.4834551
298.037618
298.0182083
299.4697318
298.0134887
298.0143209
298.0152222
298.0705919
303.4539156
298.0754593
298.0660902
298.0575146
298.0318071
298.0301765
298.152479
298.0483581
298.0364107
298.1054178
298.0171723
298.0799198
298.0756522
298.061118
306.5570105
302.6826584
306.3216537
305.2947408
303.6881309
303.6400507
303.8595577
305.9377925
304.1340296
306.5411716
359.3570312
310.6495135
313.1679174
448.8269279
304.2229128
312.1605026
308.6910059
310.7388894
499.7952838
312.8096821
308.8866724
314.6644597
312.7286508
298.0041642
301.6161829
298.0005412
298.0043896
298.0001776
298.0003706
298.0000904
298.0001958
298.0000471
298.0078863
298.0116665
298.0038494
298.0087499
298.0102398
298.0174994
298.0386527
298.0639119
298.0315525
298.0232993
298.0332467
298.0152986
298.0557466
298.0106136
298.0721587
298.0202626
298.0357664
298.0523368
298.0324284
305.0430541
305.4773824
304.0608488
304.3703319
306.4983319
306.548653
304.4037403
307.6820648
307.3568931
302.0981549
303.6301266
305.2687747
298.4903246
303.5487243
303.1282262
310.0011431
307.435641
312.8002812
307.7055373
312.1566286
311.2535279
309.3280455
306.9924932
310.7137789
304.6232235
310.2537437
466.2526846
373.15
682.6825696
416.2055639
411.0757933
347.309904
363.2941202
314.84491
433.033331
353.4683324
553.1749626
315.3653303
660.8323173
298.0504576
298.0500706
297.9996932
298.0637892
298.0499303
298.0000008
298.0057408
298.0051341
298.0029575
298.0001279
298.0050664
298.0029651
298.0002368
298.0006883
298.0134813
298.0003291
298.0013782
298.0039965
298.0003875
298.0000905
298.0002061
298.0772638
298.014008
298.0237978
298.0092839
298.0146786
298.0506918
298.0792914
298.026338
298.0375779
298.074958
298.0241494
298.0425685
298.0385094
298.0126911
298.0324234
298.0152519
302.8341065
303.3368026
304.5120807
304.7550402
302.6978914
303.4144799
308.0229213
302.7704096
306.8170163
303.9522704
304.3437421
304.4359735
307.7849281
302.3674234
305.6568148
303.4969831
307.0698051
305.7669556
493.7100173
313.3713175
304.1760209
310.907504
306.5677976
309.4221606
311.5847193
304.1145216
305.2642112
310.7251145
311.6875761
312.0991544
311.7839579
309.8295013
312.5605334
303.8146081
313.763664
310.3830532
309.2883008
298.0002814
298.0003176
298.0002495
298.0136529
298.0042896
298.0002931
298.0102055
298.0000989
298.0081004
298.0003922
298.0005823
298.0142308
298.0805385
298.0143319
298.0162895
298.0234964
298.0920123
298.0376595
298.0002675
298.0579453
298.0243326
298.0552904
298.0171634
298.0561126
305.1558178
306.6131931
303.8768571
305.2064262
305.1436845
305.2605513
306.1360798
303.896154
303.344058
305.7963493
305.3266156
304.9484127
304.8215657
305.6799183
305.0993855
307.0112958
313.0937049
314.1619211
313.1028649
312.2283211
310.8116852
308.7973138
306.4819719
313.3530054
312.1537495
310.667252
308.0608747
333.4500404
298.0003523
298.0005514
298.0001336
298.0001602
298.0112025
298.0008928
298.0064665
301.9849335
298.0039645
298.0001001
298.0097364
298.0004181
298.0000972
298.0150763
298.0439682
298.0174931
298.0207374
298.0204132
298.0703718
298.0181455
298.0407146
298.0475269
298.0157808
298.0630278
298.0450746
298.0053589
301.7419779
305.44914
301.6303692
304.9538101
303.3926806
302.8670275
303.4861713
301.7928213
304.2918698
302.4810457
304.494784
304.2154787
302.0666575
309.6115289
306.6680402
311.1541054
308.2751103
310.1615409
307.122883
306.4392344
305.9442192
311.2384193
313.1528383
308.2674402
309.5628114
685.3768722
629.4524536
577.4628251
373.1499996
642.4043766
314.7673316
770.431403
869.1837643
1122.106211
682.9226562
1124.371869
1113.10686
1113.150376
1113.949995
1107.262946
806.966774
1103.331621
1117.874731
782.8137963
803.2061973
1116.708306
1107.93756
663.5793809
790.4973516
801.8812819
679.4956916
608.4879425
834.2101338
1125.878043
1111.445104
672.4865226
602.0290604
1151.885462
1160.913505
1156.564109
1144.922589
1154.059892
1122.300909
1159.342045
1130.454721
1148.087161
1119.372744
1156.594816
1127.2122
1155.733046
1161.374182
1153.634987
1153.030875
1116.732357
1160.303099
1125.417191
1160.283891
1119.73919
1161.695429
1163.047635
1161.75817
1131.576885
1153.225393
1106.732777
818.3163046
815.1548375
800.6596138
1147.500117
1102.140256
781.5352302
813.6137748
1146.003411
791.7754546
1077.250519
1110.33583
820.1825945
789.4936327
1125.034347
1130.92156
1131.502159
1145.679707
1137.222686
1178.935619
1144.84834
1157.016642
1131.861097
1146.653465
1111.708835
1110.344577
1152.468162
1162.458158
1152.154137
1168.460612
1166.815277
1129.46426
1167.872784
1144.837491
1121.422132
787.1660589
1124.109091
796.4184893
835.2078079
1108.430618
1107.806124
1106.99899
814.1223587
810.4702845
836.0164961
1111.049798
1136.381977
1107.449802
835.2218761
830.5192034
804.404058
804.0186538
844.6579165
1154.541992
1164.927286
1155.478912
1119.056394
1106.196204
1148.326726
1136.457464
1117.32853
1151.229867
1131.579614
1131.697138
1171.767906
1111.118672
1150.821446
1126.846983
1190.257011
1109.879537
802.6549122
800.5692967
686.1483896
1102.967448
834.7298381
1110.089325
785.227649
805.0673558
1107.277762
819.7588636
1103.397272
789.0761875
1102.398647
715.3441557
687.412922
783.6600301
819.1292801
788.2258584
858.4839507
631.5882826
831.7291004
788.0931344
1099.004725
800.335795
1099.291045
1103.903282
1113.72548
1136.348589
1149.127517
1116.04824
1133.008751
1106.644519
1147.20895
1109.782914
1143.454301
1116.800253
1144.359661
1134.792289
1103.505404
1138.814868
1139.737392
1103.367019
1102.738447
813.306694
678.4658145
1110.485808
1109.02439
731.7806379
795.0261328
1104.51649
857.4837407
845.4153802
1112.311385
769.0730144
690.9461701
670.5262408
1127.564494
767.3314992
662.1925976
1106.639913
639.6697004
747.2007084
834.9021392
860.8842562
1114.189819
762.8007147
1134.765023
1143.499357
1158.765486
1130.497418
1143.088797
1142.435959
1130.573887
1105.613758
1158.217303
1170.179066
1158.798822
1117.587331
1109.666431
1143.379869
1171.179444
1186.714855
1105.864368
1128.887212
840.2510769
837.7167671
1116.537174
1107.097512
817.3349442
789.2613742
1102.626598
808.4111123
811.0460498
1109.910217
1096.643283
814.1230414
1128.609274
1136.562612
1121.683113
1159.795809
1168.902463
1118.30332
1154.758674
1130.120786
1105.700436
1148.3619
1162.898179
1172.688111
1135.189246
1114.423119
1148.583938
1121.680892
1167.312383
1171.446764
1124.059782
1159.235764
1191.968193
1086.72286
400.2319053
840.7629311
1111.573245
1118.479216
767.4127823
1105.782695
1106.448876
794.9143558
804.9653778
804.7941075
808.3367783
1106.700743
795.1916015
778.5388955
697.3028795
875.7063323
1115.708262
848.9479821
1110.883706
1129.923756
842.4931956
1114.862194
1112.782832
1132.270522
776.6541185
1125.136095
786.0098457
692.5705923
641.982742
1132.061856
1116.336716
1125.413836
1154.152773
1151.893616
1112.496821
1141.799008
1142.602256
1122.478639
1151.38827
1126.997288
1122.951293
1163.141922
1153.66623
1153.614813
1116.62222
1166.463119
1152.903688
1153.730088
1131.070078
1144.224068
1157.438145
1133.920446
1158.752923
1159.287821
1111.541341
1142.009511
1138.197837
1167.292305
1165.881679
1163.311411
1173.184231
1118.234102
1110.67456
1126.455085
1046.647889
796.6033654
825.7154062
782.519079
1001.628864
687.6615714
1126.279545
762.0418539
1124.543048
809.2530432
1112.588596
1164.58033
1171.812716
1154.992157
1154.053135
1125.93348
1172.980351
1156.621066
1164.235483
1179.969614
1157.927451
1157.376866
1120.26367
1166.292894
1157.61087
1168.248304
1113.750382
1164.738062
1158.67997
1192.6731
1177.012165
1196.918027
1122.755162
815.2533703
838.6016768
778.8631554
1112.223494
790.2316348
788.7484051
1114.43177
1097.339466
773.6043117
815.8560503
700.5260142
1124.656433
1147.946719
640.1395413
1149.258828
1110.751851
1168.062015
1165.162538
1130.173413
1166.424906
1170.066429
1162.958773
1155.56173
1097.3444
1155.966488
1121.472799
1168.330081
1140.28439
1183.760437
1118.019993
1116.276217
1184.595115
1112.183012
1147.628537
1162.0983
1185.274175
1137.802273
804.7706976
1108.787663
819.8772161
1097.945532
802.1860451
815.6322495
1108.328176
1099.752325
1104.16878
1108.086495
811.5879092
821.2797142
1106.44268
581.556651
1111.522555
812.5618783
803.1255001
1102.096734
1105.624919
1105.971085
833.7259997
822.9194557
1105.52299
764.3769106
792.1867686
1100.235797
1105.561227
775.34709
793.8228251
1146.159281
1104.235663
1112.736092
1115.89854
1122.231781
1148.822254
1105.68471
1112.823235
1148.018255
1112.265943
1145.866649
1119.241425
1141.154137
1115.645097
1146.531829
1147.949007
1155.688218
1118.682136
1141.709723
1099.694359
845.0205659
820.9864608
1105.077114
1127.566754
705.1872236
1112.843102
812.355291
1125.633248
802.5405907
1107.089282
718.4896627
777.5088546
1117.475324
1103.679541
768.2748853
789.7464585
801.0184481
1107.245588
869.2900754
1107.283044
1162.510403
1148.128964
1169.496982
1143.183787
1142.91909
1144.786317
1118.626405
1121.042404
1142.478383
1117.965842
1153.001018
1108.74823
1117.215543
751.0387621
690.5964812
635.14791
1103.500809
801.2985491
682.4464424
1113.147146
968.317614
812.6620272
700.5176438
791.1809288
1131.792905
1124.100933
795.0414565
617.5958186
793.5847697
1125.171977
1142.495988
1141.364399
1159.824877
1154.356935
1143.638839
1114.687696
1111.856342
1108.872411
1156.725108
1121.247255
1120.309579
1153.241613
1159.214565
1158.482279
1119.78367
1170.394131
1158.176845
1142.026135
1130.129356
823.4099102
)


// ************************************************************************* //
