/*--------------------------------*- C++ -*----------------------------------*\
  =========                 |
  \\      /  F ield         | OpenFOAM: The Open Source CFD Toolbox
   \\    /   O peration     | Website:  https://openfoam.org
    \\  /    A nd           | Version:  7
     \\/     M anipulation  |
\*---------------------------------------------------------------------------*/
FoamFile
{
    version     2.0;
    format      ascii;
    class       scalarField;
    location    "2/lagrangian/coalCloud1";
    object      Tp1;
}
// * * * * * * * * * * * * * * * * * * * * * * * * * * * * * * * * * * * * * //


2000
(
298.0000006
297.9999958
297.9999916
297.9999971
297.9999664
298.0000599
298.0002672
297.9999998
297.9999973
298.0000674
298.0002091
298.000366
298.0002618
298.0000013
297.9999942
298.0001887
298.0155788
298.0015871
298.0015434
298.0000252
298.0000289
298.0001419
298.0001408
298.0015222
298.0000339
298.0000276
297.999996
297.9999997
297.999987
297.9999718
297.9999981
297.9999714
298.0000532
298.0000591
298.0002584
298.0000038
297.999998
298.0000752
298.001733
298.0002606
298.0000033
298.000032
298.0001677
298.0014975
298.0000053
297.9999444
297.9999789
297.9999842
298.000003
297.9999937
298.0000025
297.9999985
297.9999661
298.0002517
297.9999824
297.9999992
298.0000117
298.0000084
297.9999927
297.9999992
298.0067069
298.006541
297.9999949
298.0068597
298.0066496
298.0000538
297.9999747
298.0000895
298.0000032
298.0002467
298.0000176
298.0000056
298.0002094
298.0002189
298.0000023
298.0002666
298.0081342
298.0001362
298.0000817
297.9999412
298.0070296
298.0000232
298.0024544
298.0204801
298.0007732
298.0024049
298.0023901
298.0008173
298.0000122
297.9999978
298.0000094
297.999984
297.9999627
297.9999966
297.9999948
297.9999733
297.9999961
297.9999908
298.0024182
298.0025836
298.0008256
298.0023737
298.0023742
298.0000096
297.9999959
297.9999958
297.9999921
297.9999845
297.9999665
298.0128918
298.0123928
298.0003151
298.0129492
298.0122735
298.0001096
298.0000847
298.0000892
298.00003
297.9999965
297.9999835
297.9999996
297.9999939
298.0000023
297.999993
297.9999612
298.0194056
298.0133949
298.0016692
298.017934
298.0123137
298.0001216
298.0000486
297.9999296
297.9999999
298.0000561
298.0000737
298.0000412
297.9999997
298.000004
297.9999769
297.9999971
297.9999933
298.0000026
297.9999879
298.0000004
298.0000019
297.9999966
297.9999983
297.9999993
297.9999832
297.9999923
297.9999933
297.9999656
297.9999628
297.9999928
298.0000046
297.9999111
298.0000021
297.9999949
298.0000024
298.0000087
297.9999961
297.9999943
298.0000029
297.9999913
297.9999707
297.9999937
298.0000096
298.0000085
298.0001787
298.0000264
298.0000204
298.0000119
298.0001393
297.9999955
298.0000026
297.9999619
297.9999913
297.99997
298.000119
298.0002857
298.0001735
298.0000059
298.0001127
298.0004247
298.0006663
298.0002857
298.0003131
297.9999883
298.000293
298.0000609
298.0000026
298.0001183
297.999997
297.9999913
297.9999959
298.0000041
298.0000399
298.0010738
297.9999993
298.0010358
298.0000336
298.0000577
298.0017225
297.9999907
297.9999899
298.000048
298.0000263
297.9999991
298.0001712
298.0012976
298.0012536
298.0049953
298.0001901
298.0003164
297.9999958
298.0000044
298.0000135
298.0010496
297.9999913
298.0000135
298.0010242
298.0000057
298.0000654
297.9999984
297.9999946
298.000004
298.0000522
298.0002321
298.0012508
298.0001515
298.0002554
298.0003913
298.0012767
297.9999774
298.0000037
298.0000003
297.9999841
298.000001
298.0000003
298.000003
298.0000001
298.0000049
297.9999993
297.9999959
297.9999899
298.0000053
297.9999987
298.0000005
298.0001588
298.0000106
298.0002936
298.0001555
297.999997
298.0000022
298.0000037
297.9999636
298.0000696
298.000008
298.0000429
298.0002211
297.9999947
298.0001378
298.000107
298.0000103
298.0000338
298.0000043
298.0000021
297.9999812
298.0004345
297.9999944
298.0003362
298.0009475
298.000449
298.0010537
298.0018081
298.0009187
298.0001851
298.0002132
298.0098873
298.000163
298.0002004
298.0007223
298.0002546
298.0037822
298.0000853
298.0000678
298.0002626
298.0002483
298.0000637
298.0003817
298.0010345
298.0008722
298.0001684
298.0002019
298.0015872
298.0002427
298.000293
298.0000692
298.0000616
298.0002449
298.0009443
298.000012
297.9999975
297.9999977
297.9999986
298.0000119
298.0000109
297.9999548
298.0000723
297.9999682
298.0000207
297.9999921
297.9999814
298.0000258
298.0001223
298.0002445
298.0002315
298.0004183
298.0000052
297.9999908
298.0001045
298.0008018
297.9999932
298.0001937
298.0001687
298.0009837
298.0002443
298.0001422
298.0000312
298.0003302
297.9999974
297.9999938
297.9999721
297.9999994
298.0000017
297.9999323
298.0000093
297.9999984
297.999989
298.0010785
298.0000491
298.0003741
298.0184095
298.0016484
298.0003723
297.9999945
297.9999963
297.9999566
297.9999378
297.9999912
298
297.9999945
297.9999754
298.0000135
298.0003563
298.0011712
298.0017577
298.0013535
298.0019067
298.0004699
297.9999893
297.9999839
298.0000004
297.9999961
297.999919
297.9998295
297.9999887
297.9999785
297.999991
297.9999977
298.0004263
298.0000044
298.0000201
298.0002106
297.9999794
297.9999941
297.9999227
297.9998358
298.0001356
297.9999296
297.9999892
298.0001468
298.0001166
297.9998968
298.0006953
297.9999997
297.9999038
298.0004978
297.9999963
298.0000104
298.0000117
297.9999885
298.0000082
297.9999957
297.9999423
298.0000044
297.9999963
297.9999894
297.999927
297.9999958
297.9999961
298.0000505
297.9999905
297.9999857
297.9999477
297.9999956
297.9999951
298.0000488
298.0000414
297.9999865
297.9999863
297.9999984
298.0000005
298.0000125
298.0000126
297.9999971
298.0000016
298.0000052
297.9999952
298.0000089
298.0000078
298.0000059
297.9999974
298.0000011
297.9999887
298.0000012
298.0000038
297.9998938
298.000046
297.9999927
298.0000413
297.9999951
298.0000177
297.9999635
298.0000027
298.0000051
297.9999963
297.9999958
297.9999961
297.9999599
297.9999379
297.999988
297.9999962
297.9999878
297.9999738
297.9999978
297.9999978
297.9999991
297.9999991
298.0001034
298.0000924
298.0000242
298.0000046
298.0001044
298.000127
298.0007586
297.9998966
297.9999476
298.0000302
298.0000014
298.0001269
297.999993
297.9999816
298.0000544
297.9999848
298.000006
297.9999974
298.0000199
298.0000082
298.0003872
297.9999909
297.9999287
297.9999974
297.9999757
297.9999919
298.0003593
298.0003664
298.0003586
298.0000794
298.000366
298.0034329
298.0000451
298.0015141
298.0145672
298.0001047
297.9999595
297.9999995
298.0000157
297.9999462
298.0003552
298.0000677
298.0003641
298.0003738
298.0034824
298.001492
298.0015145
298.0014178
298.0001943
297.9999016
298.0002276
298.0007959
297.9999752
298.0016307
298.0053678
298.0023995
298.001695
298.0002007
298.001448
298.0002717
298.0003142
298.0014938
298.0002347
298.0002027
297.999948
298.0051268
298.0017598
298.0020284
298.0020458
298.0024561
298.0002144
298.0030315
298.0077729
298.0011642
298.0013843
298.0056901
298.0131804
298.001308
298.0048429
298.0117102
298.0027234
298.0007518
298.000932
298.001316
298.0007122
298.0007127
298.0007582
298.0012297
298.0013248
298.0000728
298.0011067
298.0018248
298.0013579
298.0017822
298.0012993
298.0013132
298.0009744
298.0007046
298.0006999
298.0007353
298.0012923
298.0000217
298.0000289
298.0001275
298.0000073
297.9999965
298.0001258
298.0002315
298.00026
298.0185445
298.0002587
298.0002978
298.0003658
298.00252
298.007985
297.9999916
298.000033
297.9998696
298.0000045
297.9999937
298.0000766
297.9999917
298.0002745
298.0004314
298.0192154
298.0023521
298.0214896
298.0000365
298.0004461
298.7810246
298.0015698
298.0018341
298.0271902
298.0033406
298.0000687
298.001554
298.0016106
298.0033814
297.9999898
297.999995
298.0000022
297.9999983
298.0000258
298.0031786
297.9999904
297.9999892
297.9999983
298.0000132
298.0000211
297.9999978
297.9999901
297.9999957
297.9999972
298.0022149
298.0000742
298.0015364
298.0034383
298.0032519
298.0000363
298.0000567
298.0015563
297.9999948
298.0000002
297.9999969
298.0000295
298.0000236
297.9999968
297.9999972
298.0000032
298.0021801
298.0021651
298.0000482
298.0000034
298.0000066
298.0000065
298.0021492
297.9999374
298.0001593
298.0001192
298.0000853
298.0000012
297.9999985
297.9999996
298.0000877
297.9999869
297.9999975
297.9999376
298.0000497
297.9999975
298.0000031
298.0002375
298.0000219
298.0003966
298.0000031
298.0001706
298.0002604
298.0006312
298.0004055
298.0000865
298.0010673
298.0000022
298.0002277
298.0002439
298.0002006
298.0000166
298.0003018
298.000093
298.0000572
298.0004043
298.0001305
298.0159878
298.0041024
298.0000117
298.0000417
298.0000421
298.0000417
298.0000001
297.9998863
298.0000568
298.0000402
298.0000406
297.999985
298.0000075
298.0000044
297.9999927
298.0009522
298.0000005
298.002193
298.0009972
298.0011216
298.0044306
298.0000453
297.9999639
298.0000008
297.9999971
298.0000062
298.0000016
298.0000166
297.9999987
297.9999933
298.0009774
297.9999208
298.0011266
298.0021616
298.0000079
297.99997
297.999996
297.9999288
297.9999898
297.9999745
297.9998465
298.0000087
297.9999844
298.0000058
297.9999816
298.0000695
297.9999758
298.000636
298.0009567
298.0001697
297.9999684
298.0000137
297.9999985
297.9999984
298.0000073
298.0000028
297.9999953
297.9999369
297.9998072
298.0838786
298.0021962
298.0022417
298.0060679
298.0000828
298.0001315
298.0000016
298.0000781
298.0000833
298.0000119
297.9999931
298.0002634
298.00087
297.9999976
298.0002735
298.0002613
297.9999892
298.002347
298.006149
298.0058078
298.0000951
298.0000763
297.9999661
298.0001082
298.0001531
298.0001368
297.9999941
298.0003143
298.0002856
298.0002631
298.0002814
297.9999867
298.0001592
297.9999778
298.0000912
297.9999801
297.9999666
297.9999446
297.999976
298.0130081
298.0124908
298.0000095
298.0126703
297.9999778
298.0000344
297.9999619
298.0000023
297.9999426
298.0007789
297.9999718
298.0185217
297.9999919
298.0133969
298.0123277
297.9999837
298.0003179
298.0005503
298.0027325
298.0013047
298.0013409
298.0003505
298.0020374
298.0001735
298.0006611
298.0002143
298.0010534
298.0005228
298.1807632
298.006055
298.1806329
298.0002905
298.0005528
298.1978534
298.122528
298.0612297
298.185807
298.2483697
298.1754513
298.087487
298.07891
298.2355612
298.07279
298.1330321
298.1627133
298.085356
298.0593571
298.3705825
298.1433322
298.1716974
298.0464459
334.5210227
331.9135071
342.8393965
342.6791115
345.6432728
330.5993684
327.9661778
330.2409199
331.1295967
330.4488995
332.2164841
329.9036716
327.2703438
299.6244289
328.0149383
329.2095467
327.3439439
329.8112793
346.0099227
360.914013
347.0954238
397.101282
364.9106797
381.4039434
331.498818
369.6834596
355.7598211
338.132346
365.4382148
356.3332059
401.9706316
361.4296552
338.9127148
355.266476
300.2706885
298.0206185
298.0093871
298.0016832
298.0018567
298.0008624
298.0002328
298.0010619
298.0027708
298.0293408
298.2004156
298.1140459
298.1055394
298.0735301
298.1072613
298.2594689
298.1057094
298.1980353
298.247264
298.0077379
298.0568147
298.0882998
298.1470725
298.2687872
298.1648956
298.1531798
298.1547999
298.3983395
330.890533
329.1309264
325.7647322
330.3881516
337.166462
335.9144308
323.4249124
336.5914339
335.6174594
325.1222809
333.9361682
333.5104321
342.8616223
351.8808304
365.1240818
396.4004904
374.2433307
346.7624311
370.249081
396.4902904
402.6427626
374.693204
342.7452864
370.9639443
352.1920151
298.057994
298.0559257
298.001952
298.1719462
298.091652
298.1569269
298.089996
298.1364108
298.0152302
298.0170831
298.0439366
298.2012724
298.2160966
298.2321133
298.3845909
298.0969132
298.1550555
298.0919024
299.6179556
298.2520188
298.0174536
298.2528842
298.0447607
298.3920167
298.0460015
298.30266
334.2259951
333.2915066
342.4797711
334.1773279
334.1904117
300.1662573
326.5502401
326.9839145
319.9570522
327.3854733
352.9757229
381.4192954
381.5560949
373.622877
368.7397774
318.3404898
349.7629689
339.3432026
366.5537628
348.2978833
322.7579384
341.2878404
364.6871942
346.0489218
595.9699778
689.4890726
388.909153
498.506158
599.1695594
693.3586841
401.8424149
397.114071
383.3699403
611.3104099
344.3301956
298.0002295
298.0003482
298.0003607
298.0006234
298.0735638
298.0004889
297.999993
298.0789094
298.0312362
298.0007524
298.0306985
298.0006582
298.0002878
298.0179733
298.0002443
298.0013249
298.001137
298.0325802
298.2044574
298.1160469
298.1184001
298.1022679
298.2567349
298.1495836
298.0011799
298.0781255
298.0936709
298.1192636
298.2354874
298.2234765
298.234185
298.0748331
298.0884807
298.1788679
298.178121
298.1695672
298.2248493
298.1320479
334.0363471
330.973142
326.9530052
326.8739338
332.9230446
334.2550764
330.7967055
327.2896229
323.3090077
326.0994973
349.16238
334.3052503
334.2236833
335.4414587
335.7269769
329.2969234
332.4986368
330.78567
334.2066099
329.6029715
330.6254875
356.1531663
397.2598894
369.4614853
390.1495757
368.9198347
345.274975
351.7911415
378.7684501
372.0545492
371.3370847
329.3812732
332.5753294
378.4087492
375.3496304
378.4613614
379.0405414
371.4893
397.2784066
298.0015178
298.1611377
298.0007398
298.0607859
298.0163127
298.0001779
298.2934245
298.098292
298.0484399
298.1020504
298.0448819
298.0526028
298.3388205
298.1443949
298.1482358
298.1922643
298.3079942
298.1344362
298.3192649
298.0576391
298.1629982
298.1858604
298.1086918
298.2232036
298.2085525
334.201387
323.5162944
324.6838679
327.1315021
324.0818538
324.6591194
322.8748455
331.727861
328.1640877
326.9225455
333.7706682
374.5146883
365.0698649
369.5808936
371.7556933
347.1646387
374.3639188
354.5620187
361.7124819
324.1793113
356.1462476
324.2260067
334.6468728
410.3501976
360.8731844
298.0001596
298.0000964
298.0000915
298.0004253
298.090488
298.0006719
298.000845
298.0946199
298.0011402
298.0746481
298.1022675
298.0028266
298.0033845
298.0008629
298.0030557
298.2718553
298.0651799
298.0651046
298.2776685
298.1863778
298.180258
298.2432209
298.0035067
298.1894349
298.1779401
333.1732952
331.5555614
322.1939641
332.4557939
332.308442
321.8789088
333.502937
332.0172269
332.7305359
326.1431681
328.5771523
334.2991014
390.0476471
372.1294678
366.1938691
353.6351908
363.8463467
362.6406017
340.3637867
339.7593845
357.6794603
397.3956392
366.7605934
376.2402662
338.3664995
380.2692927
706.1906639
663.6036352
298.1397227
298.0006274
298.0160946
298.0006819
298.0003901
298.0005527
298.000496
298.0001483
298.0016659
298.0003725
298.0699253
298.0014739
298.001436
298.0014714
298.1700896
298.1216178
298.0970286
298.2726603
298.2724147
298.1687503
298.1553265
298.3113405
298.0750218
298.0758409
298.1353084
298.1239524
298.2230249
298.2334857
298.052994
298.3605598
298.3750335
298.0015279
298.1944382
302.4098181
331.3562814
338.9536594
330.5446317
338.458226
338.7531756
329.3393128
328.6006648
330.9444694
354.5869065
331.1046691
340.7024688
340.0591356
337.9176443
337.7525455
324.5314974
336.9902179
337.196426
336.7888444
325.7721997
352.8076376
381.5762806
341.2471824
332.6114837
372.1983947
376.0953203
375.4752327
340.9736898
378.3360628
356.3857299
351.4857854
396.3087682
343.4077513
373.8685175
364.772343
338.9605514
298.1581744
298.1632751
298.0019023
298.0026224
298.0058214
298.0016041
299.4803616
298.1343199
298.0099355
299.0612313
298.0318137
298.0316424
298.0322106
298.1863133
301.3350733
298.2575041
298.2649964
298.3203506
298.1269326
298.1031467
298.3089273
298.1245143
298.0760393
298.5950938
298.0700329
298.1854868
298.3224949
298.1519375
341.308222
327.9813393
341.0265796
340.4847618
328.1977205
327.8904572
328.3374559
341.6509697
332.70329
331.4551159
359.3570312
366.2947993
373.973276
448.8269279
331.0236722
394.7723063
334.6710197
353.8994473
499.7952838
361.2808654
339.7436422
399.6161203
398.8604179
298.0022229
299.832015
298.0007392
298.0031078
298.0002469
298.0007028
298.0001974
298.0001731
298.0002025
298.0371812
298.0386497
298.007576
298.0388305
298.0390596
298.0145811
298.1036834
298.2254443
298.1654776
298.129407
298.1382955
298.0763564
298.21939
298.0574802
298.1137202
298.0940818
298.1865933
298.1414735
298.0879737
336.321674
335.9853751
332.7924317
333.3326639
343.0774784
343.2925096
333.6022551
345.365574
344.1973249
322.6635714
326.2422678
334.0645318
298.426346
326.6658275
324.254396
360.4424031
339.7698536
395.4932899
344.8544551
370.0839594
374.634451
351.2485412
344.2685035
370.7394767
328.3917484
367.2047701
466.2526846
380.8622907
682.6825696
416.2055639
411.0757933
347.309904
363.2941202
406.6745455
433.033331
353.4683324
553.1749626
411.8592434
660.8323173
298.2086899
298.209925
298.0003033
298.2700199
298.2087095
298.0004226
298.1524726
298.1520979
298.0850509
298.0010411
298.1518148
298.0833767
298.0008495
298.001208
298.1011513
298.0012753
298.0022191
298.0016993
298.0003971
298.0002014
298.0006959
298.2950059
298.087064
298.1157197
298.0476384
298.062606
298.2702563
298.4056717
298.2031453
298.2926054
298.1718746
298.202782
298.2904095
298.1692533
298.006454
298.1732215
298.104593
326.1139861
326.6545467
333.8438776
334.9383936
325.7355794
326.8776096
353.147123
327.1014044
342.4581435
339.6534222
335.664546
336.0963919
352.0707504
326.141238
341.6662247
328.7385484
342.9222055
341.5696464
493.7100173
395.006574
349.8763894
365.0585615
343.1657894
357.1365078
378.8705519
333.0728741
338.1673049
374.1254866
374.081008
396.4296783
386.8526658
349.8410502
368.7439528
328.0932101
403.3760516
372.7890381
354.6133374
298.0006244
298.0008158
298.0006092
298.0685656
298.013651
298.001352
298.005713
298.0002869
298.0043317
298.0008346
298.000695
298.0742433
298.3202875
298.0696974
298.0773838
298.105002
298.4360126
298.2197978
298.0055857
298.2647943
298.1279883
298.2291342
298.0962272
298.2626553
335.8407209
333.3395243
328.7089326
336.2897472
335.1175185
335.1263184
338.773842
329.3571748
333.1924273
338.8879388
340.4999974
333.8640297
333.3276473
335.4125137
333.7211692
338.4623536
379.4265672
401.913433
366.5203896
362.7766013
355.5979001
358.9088829
334.8639615
400.1226375
378.7489549
362.7258171
336.2372689
333.4500404
298.0006925
298.0009126
298.0003709
298.0003125
298.0050373
298.0005458
298.0374441
299.7444789
298.0037335
298.0003316
298.0092433
298.0008868
298.0001769
298.0594058
298.1818794
298.1026641
298.1205971
298.1225516
298.2375001
298.0902568
298.0948473
298.2146157
298.0600939
298.1987866
298.1811777
298.0038285
319.1963267
341.1321002
318.2898096
333.2349788
331.3741402
325.2343596
332.1043774
320.1589852
333.5817403
323.0669096
334.9876563
333.2478812
321.9410635
357.3599886
340.3217229
378.6410354
355.3107118
365.341677
348.5434925
345.4011011
341.6367596
378.3654698
394.3519166
355.3567777
359.9616479
685.3768722
629.4524536
577.4628251
476.5731611
642.4043766
413.5438858
770.4364217
869.1873226
1122.107676
682.9226562
1124.373437
1113.108292
1113.151889
1113.951521
1107.264617
806.9714035
1103.333209
1117.876235
782.8182633
803.2104992
1116.70968
1107.939301
663.5793809
790.5024105
801.8856845
679.4956916
608.4879425
834.2138169
1125.87951
1111.446669
672.4865226
602.0290604
1151.886734
1160.914795
1156.5654
1144.923849
1154.061088
1122.302424
1159.343365
1130.456264
1148.088292
1119.374134
1156.596246
1127.213854
1155.734284
1161.375516
1153.636395
1153.032142
1116.733893
1160.304312
1125.418639
1160.285086
1119.740536
1161.696627
1163.048835
1161.759384
1131.578306
1153.226515
1106.734259
818.3204147
815.1592682
800.6637841
1147.501104
1102.141733
781.5402282
813.6176555
1146.004483
791.7795352
1077.251912
1110.336997
820.186597
789.4985241
1125.035633
1130.922808
1131.503456
1145.680866
1137.22386
1178.936512
1144.849484
1157.017703
1131.862227
1146.654424
1111.709995
1110.345796
1152.469055
1162.459184
1152.155225
1168.46164
1166.816306
1129.46563
1167.873821
1144.838647
1121.423545
787.1704515
1124.110316
796.4226979
835.2114122
1108.431748
1107.807453
1107.000273
814.1260037
810.4742331
836.0199889
1111.051055
1136.38289
1107.451176
835.2253755
830.5237226
804.4086046
804.0232343
844.6616812
1154.54295
1164.928293
1155.48007
1119.057574
1106.197279
1148.327783
1136.458485
1117.329867
1151.23092
1131.581111
1131.698439
1171.769038
1111.120004
1150.822517
1126.848503
1190.257933
1109.880933
802.659373
800.5736561
686.1483896
1102.969041
834.7337167
1110.090814
785.2323953
805.0718166
1107.279323
819.7630124
1103.398694
789.0803551
1102.400068
715.3441557
687.412922
783.6649092
819.1336315
788.2302394
858.4873668
631.5882826
831.7327995
788.0977401
1099.00613
800.340181
1099.292559
1103.904681
1113.726961
1136.349914
1149.128787
1116.049759
1133.009936
1106.645923
1147.210259
1109.784349
1143.45542
1116.801784
1144.360846
1134.793502
1103.506986
1138.816038
1139.73864
1103.368615
1102.739869
813.3110377
678.4658145
1110.487053
1109.025517
731.7806379
795.0301059
1104.518013
857.4874214
845.4191849
1112.312861
769.0778834
690.9461701
670.5262408
1127.56588
767.3362371
662.1925976
1106.641524
639.6697004
747.2058104
834.9060548
860.8883573
1114.191041
762.8052718
1134.765939
1143.500513
1158.766309
1130.498546
1143.089805
1142.437234
1130.574961
1105.615348
1158.218422
1170.180029
1158.799704
1117.588884
1109.668046
1143.381238
1171.180259
1186.715796
1105.865834
1128.888231
840.2547233
837.7204656
1116.538424
1107.098874
817.3389589
789.2660479
1102.628008
808.4151328
811.0499762
1109.911253
1096.644764
814.1274667
1128.610281
1136.563939
1121.6845
1159.796856
1168.903349
1118.304748
1154.759772
1130.121826
1105.701862
1148.36301
1162.899202
1172.689026
1135.190655
1114.424428
1148.584947
1121.682207
1167.313359
1171.447691
1124.061047
1159.236585
1191.968991
1086.724442
400.2319053
840.7664502
1111.574608
1118.480433
767.417791
1105.783971
1106.450406
794.9191118
804.9700673
804.7981118
808.340645
1106.702024
795.1964555
778.5443776
697.3028795
875.7096792
1115.709697
848.9515188
1110.885164
1129.925327
842.4967939
1114.863605
1112.784242
1132.271966
776.659602
1125.137609
786.0145176
692.5705923
641.982742
1132.063301
1116.338297
1125.415372
1154.153725
1151.894599
1112.498374
1141.800145
1142.603391
1122.479828
1151.389531
1126.99872
1122.95294
1163.143277
1153.667386
1153.615962
1116.623675
1166.464412
1152.904897
1153.73125
1131.07151
1144.225415
1157.439444
1133.921933
1158.754207
1159.289079
1111.542902
1142.010857
1138.19925
1167.293508
1165.882903
1163.31268
1173.185484
1118.235618
1110.676054
1126.456634
1046.649895
796.6085434
825.7198684
782.5243353
1001.63161
687.6615714
1126.280856
762.0473915
1124.544364
809.2571949
1112.589965
1164.581657
1171.813945
1154.993399
1154.054374
1125.935108
1172.981608
1156.622424
1164.236908
1179.970884
1157.928817
1157.378224
1120.265279
1166.29394
1157.611951
1168.249335
1113.751928
1164.739099
1158.680793
1192.674186
1177.013435
1196.918957
1122.756399
815.2571059
838.6057142
778.8677603
1112.224894
790.2365625
788.7521732
1114.433168
1097.340958
773.6093921
815.8604291
700.5260142
1124.657984
1147.94783
640.1395413
1149.259999
1110.75322
1168.062791
1165.163704
1130.174623
1166.425855
1170.067325
1162.959837
1155.562818
1097.3456
1155.967602
1121.474161
1168.331095
1140.285718
1183.761452
1118.02159
1116.277798
1184.596223
1112.184609
1147.629865
1162.099567
1185.275268
1137.803696
804.7750837
1108.789172
819.8811563
1097.947002
802.1906653
815.6363834
1108.329703
1099.753811
1104.170258
1108.087948
811.5925427
821.2835553
1106.444267
581.556651
1111.523959
812.5658349
803.1301564
1102.098356
1105.626373
1105.972662
833.7298121
822.923497
1105.524681
764.382581
792.1909451
1100.237161
1105.56278
775.3519707
793.8269419
1146.16056
1104.237137
1112.737556
1115.900022
1122.23308
1148.823432
1105.686215
1112.824759
1148.01938
1112.26743
1145.867951
1119.242796
1141.155421
1115.646751
1146.532858
1147.950233
1155.689547
1118.68375
1141.710791
1099.695786
845.0241652
820.9902407
1105.078491
1127.567947
705.1872236
1112.844298
812.3589764
1125.634536
802.5442091
1107.090533
718.4896627
777.513667
1117.476491
1103.68084
768.2797788
789.7505806
801.0229731
1107.246893
869.2939723
1107.284428
1162.511407
1148.130052
1169.497842
1143.184766
1142.919884
1144.787293
1118.627564
1121.043539
1142.479469
1117.967089
1153.001974
1108.74974
1117.217021
751.0440399
690.5964812
635.14791
1103.502339
801.3029539
682.4464424
1113.148417
968.3203388
812.6658016
700.5176438
791.1851815
1131.793771
1124.102456
795.0465275
617.5958186
793.5886135
1125.173346
1142.497045
1141.365669
1159.825963
1154.358142
1143.640095
1114.689103
1111.857831
1108.873681
1156.726384
1121.24876
1120.311077
1153.242858
1159.215364
1158.483525
1119.785199
1170.395383
1158.17759
1142.0274
1130.130675
823.4138017
)


// ************************************************************************* //
