/*--------------------------------*- C++ -*----------------------------------*\
  =========                 |
  \\      /  F ield         | OpenFOAM: The Open Source CFD Toolbox
   \\    /   O peration     | Website:  https://openfoam.org
    \\  /    A nd           | Version:  7
     \\/     M anipulation  |
\*---------------------------------------------------------------------------*/
FoamFile
{
    version     2.0;
    format      ascii;
    class       scalarField;
    location    "2/lagrangian/coalCloud1";
    object      VID1;
}
// * * * * * * * * * * * * * * * * * * * * * * * * * * * * * * * * * * * * * //


2000
(
3.157620249e-08
-2.680380707e-07
-4.165611899e-07
-1.949442068e-07
-1.214411911e-06
-2.000464193e-06
-8.159172677e-06
-1.168371275e-08
-1.742178662e-07
-1.476364143e-06
7.801601157e-06
-1.507171525e-06
-8.525743423e-06
9.082963281e-08
-3.882404006e-07
-2.180002488e-06
0.0008908383513
-4.311249763e-05
-4.60544025e-05
-1.322599442e-06
-1.063116839e-06
-4.451936285e-06
-4.577172655e-06
-4.818610542e-05
-7.374817976e-07
-1.170770719e-06
-1.873406632e-07
-1.847568249e-08
-8.251264588e-07
-9.71365521e-07
-1.253288309e-07
-1.027245382e-06
-2.338113988e-06
-2.019775474e-06
-8.60048297e-06
2.451747054e-07
-1.28223256e-07
-9.217170472e-07
-3.263843883e-05
-8.260635158e-06
2.121980713e-07
-8.45752555e-07
-3.138024937e-06
-4.741235448e-05
1.919714265e-07
-3.323844192e-06
-1.235603048e-06
-6.966724568e-07
1.398322905e-07
-3.768379407e-07
1.57372714e-07
-6.395283642e-08
-1.152207667e-06
-8.772674887e-06
-5.830153986e-07
-3.329666573e-08
4.254376953e-07
2.793765161e-07
-3.101765385e-07
-3.320714313e-08
-0.0001720452963
-0.0001722126688
-2.105788954e-07
-0.0001607456552
-0.0001759739792
2.247776691e-06
-1.027645269e-06
3.122030036e-06
1.146048977e-07
1.400671645e-05
7.543257687e-07
3.240153509e-07
8.610404764e-06
6.921355705e-06
9.085440874e-08
9.108366839e-06
-7.70019779e-05
5.322281714e-06
3.190898503e-06
-2.346518477e-06
-0.0001322831639
9.247500059e-07
-7.389784363e-05
0.0009889102185
-2.724868656e-05
-7.766426724e-05
-7.062954262e-05
-2.661319245e-05
4.476958329e-07
-1.121621974e-07
4.59808279e-07
-5.917371991e-07
-1.305260117e-06
-8.699841056e-08
-3.071979508e-07
-1.48429407e-06
-2.303713071e-07
-5.583938384e-07
-7.60656536e-05
-6.165100227e-05
-2.723949866e-05
-7.394407065e-05
-6.850532023e-05
5.354161857e-07
-1.405021305e-07
-1.93252981e-07
-4.287107164e-07
-8.20605833e-07
-1.988625631e-06
-0.0003819750521
-0.0003755570956
4.966214891e-06
-0.0003782494836
-0.0003723619469
-1.231942324e-06
3.864627857e-06
3.804271605e-06
1.613798097e-06
-1.833999703e-07
-7.267202216e-07
-1.44650166e-08
-1.537739019e-07
1.304079524e-07
-3.650084122e-07
-1.12932024e-06
1.552875994e-05
-0.0003305425184
5.090218037e-05
-6.755778271e-05
-0.0003564668589
-8.371524889e-07
2.001424081e-06
-3.56591777e-06
-1.828846274e-09
3.049208746e-06
3.665801059e-06
2.326090182e-06
-1.66123294e-08
2.520463237e-07
-1.461615174e-06
-1.778173173e-07
-4.1183224e-07
1.656258917e-07
-3.211901243e-07
2.319783513e-08
1.119737662e-07
-1.374838732e-07
-8.9495358e-08
-3.398967809e-08
-8.179911268e-07
-3.990680364e-07
-3.460850621e-07
-1.762421911e-06
-1.820079673e-06
-4.139088042e-07
2.802150292e-07
-4.994602759e-06
1.230746329e-07
-2.895414329e-07
1.430078776e-07
3.060145906e-07
-1.940177238e-07
-2.716935518e-07
1.292420611e-07
-5.223940911e-07
-1.375864093e-06
-3.740063255e-07
3.532031615e-07
3.331119808e-07
5.728533633e-06
1.130651254e-06
7.246999893e-07
4.019014042e-07
5.25476025e-06
-2.534102458e-07
1.515921695e-07
-1.041855048e-06
-5.034762689e-07
-8.561177108e-07
4.678473835e-06
8.538782636e-06
5.83109395e-06
2.110589234e-07
4.101784393e-06
1.729907355e-05
2.308655192e-05
1.5669756e-05
1.699597958e-05
-6.199325025e-07
7.775831294e-06
3.336055098e-06
1.659611722e-07
5.722061962e-06
-1.271495667e-07
-5.636481276e-07
-2.739002591e-07
-6.143826202e-08
2.187888868e-06
-2.1584339e-05
-4.343004278e-08
-2.36024263e-05
2.129294458e-06
-8.234815908e-07
0.0001019108236
-6.464123229e-07
-6.657396132e-07
-1.423735949e-06
8.858657193e-07
-7.194246772e-08
-1.817385594e-06
-3.150511052e-05
-3.472222095e-05
0.0002192101056
-9.321386979e-07
-3.135654215e-06
-2.677949351e-07
-4.503120892e-08
5.218947306e-07
-2.23993966e-05
-5.478393275e-07
5.218663698e-07
-2.335138477e-05
3.292483578e-07
-3.533237928e-07
-9.102686685e-08
-3.796256089e-07
2.176624105e-07
-1.128214568e-06
-6.440586474e-06
-3.287906435e-05
-2.62070476e-06
-5.892525584e-06
2.065690416e-07
-3.301236779e-05
-1.031320423e-06
1.647990379e-07
1.166712491e-08
-7.554280365e-07
3.693282821e-08
1.545408002e-08
1.641712867e-07
5.7473617e-09
1.993952385e-07
-3.73250234e-08
-1.759448969e-07
-4.658996106e-07
2.204465702e-07
-7.735867704e-08
2.95160171e-08
6.813002832e-06
4.490871717e-07
1.307410692e-05
7.01701686e-06
-1.320955203e-07
1.018356593e-07
1.322847528e-07
-1.54544006e-06
3.132588032e-06
2.665874771e-07
1.77604126e-06
1.159060947e-05
-2.2853818e-07
5.558630538e-06
5.829864591e-06
4.272370345e-07
1.342824212e-06
2.380339649e-07
1.116063672e-07
-7.614198119e-07
2.609247901e-05
-3.169614378e-07
1.402414756e-05
-2.146106973e-05
-7.924869455e-06
-2.311523173e-05
1.715920672e-05
-2.120205022e-05
-4.47293923e-06
-2.542523562e-06
0.0003924649943
-5.584589169e-06
-3.441106898e-06
6.535176985e-06
-8.086206507e-06
0.0002224765168
-1.022586108e-06
-2.063124494e-06
-7.312712359e-06
-8.091869322e-06
-2.300487301e-06
-1.162798382e-05
-2.35270649e-05
-2.39851226e-05
-5.369538532e-06
-3.225273873e-06
-4.003930194e-05
-5.930370719e-07
-5.287197924e-06
-1.858059902e-06
-2.171483301e-06
-8.146018132e-06
3.939550156e-05
7.401305801e-07
-9.024115489e-08
-1.386550738e-07
-7.633492017e-08
7.218294873e-07
6.600087699e-07
-2.196426742e-06
4.341077279e-06
-1.2842982e-06
1.186977136e-06
-4.643548742e-07
-3.96132575e-07
1.5354472e-06
6.858920164e-06
-7.499331024e-06
1.375218196e-05
1.897632987e-05
3.07496079e-07
-5.155413007e-07
6.076588161e-06
4.707544232e-05
-3.083559684e-07
1.109269984e-05
9.439563181e-06
3.62866475e-05
1.382182287e-05
7.899020288e-06
1.810955985e-06
6.74128014e-06
-1.729525624e-07
-3.646630005e-07
-9.663067906e-07
-3.706170931e-08
1.042733431e-07
-2.380846485e-06
3.704578879e-07
-1.508932239e-07
-4.456678451e-07
-2.11727875e-05
2.159337176e-06
1.664276236e-05
0.0009767016172
-4.187970272e-05
-1.257790674e-05
-3.525865438e-07
-2.279717186e-07
-1.52401724e-06
-1.943473383e-06
-5.605154752e-07
8.82496407e-10
-3.394175178e-07
-8.652245342e-07
5.48432778e-07
1.532483386e-05
-1.491704789e-05
-3.548736011e-05
-5.572531801e-05
-2.840204147e-05
-6.146196047e-06
-5.310019027e-07
-7.39252624e-07
2.03634941e-08
-1.775133878e-07
-2.651498193e-06
-9.873745614e-06
-6.366050014e-07
-4.948435091e-07
-5.575002522e-07
-1.304126334e-07
1.915749825e-05
1.638290549e-07
7.690614881e-07
8.459829954e-06
-9.658102367e-07
-2.759800291e-07
-2.592843877e-06
-4.673601057e-06
6.42865583e-06
-2.161337417e-06
-6.49372113e-07
7.707984085e-06
6.899868115e-06
-5.516676627e-06
2.920876275e-05
-6.701495534e-09
-3.443024329e-06
2.211020883e-05
-1.882840536e-07
-3.089692272e-07
-2.149945127e-07
-8.384788415e-07
-4.546394333e-07
-3.628286973e-07
-3.764870646e-06
2.704332027e-07
-2.488670409e-07
-6.902995336e-07
-2.619415317e-06
-2.791250798e-07
-2.575139274e-07
-1.372015221e-06
-4.7799919e-07
-7.349932369e-07
-3.484258345e-06
-2.99195094e-07
-3.287409162e-07
-1.446942249e-06
-2.037806554e-06
-6.898430588e-07
-9.291676444e-07
-1.192253855e-07
1.619027026e-08
6.010688542e-07
-1.507251004e-07
-2.615572144e-07
3.411244087e-08
2.782958091e-07
-2.315268182e-07
-3.918835837e-07
-4.65178649e-07
3.523173327e-07
-1.729106345e-07
7.051019929e-08
-3.856744746e-07
7.341214179e-08
2.417466342e-07
-3.646445386e-06
-1.656626281e-06
-4.684768948e-07
-1.978135211e-06
-2.398658617e-07
8.088856477e-07
-1.030209078e-06
1.61188574e-07
3.056836202e-07
-2.224416146e-07
-2.452863167e-07
-2.374572549e-07
-1.675372068e-06
-2.565317232e-06
-4.968354616e-07
-2.247112373e-07
-7.145729033e-07
-1.120924677e-06
-9.215242248e-08
-1.341298772e-07
-5.362376907e-08
-4.361866493e-08
6.087573316e-06
5.33409504e-06
1.45585075e-06
2.882716837e-07
6.405078966e-06
7.504892479e-06
3.340273136e-05
-4.411901244e-06
-1.365673003e-06
1.704978508e-06
6.162312897e-08
6.774235005e-06
-2.746850705e-07
-1.009266007e-06
2.245617337e-06
-5.771111671e-07
2.726289469e-07
-1.104717303e-07
1.140591945e-06
3.686394459e-07
2.200101629e-05
-5.082877911e-07
-2.498404601e-06
-1.677981327e-07
-9.440093873e-07
-3.145689503e-07
-1.251075507e-05
-1.24752535e-05
-1.246108364e-05
-2.676027373e-06
-1.215902882e-05
-0.0001089617711
-1.796190919e-06
-3.910313741e-05
0.000686346399
2.098544207e-06
-1.838137425e-06
-5.06300183e-08
7.058851697e-07
-1.681461517e-06
-1.24025408e-05
-3.152985659e-06
-1.219457737e-05
-1.09204857e-05
-0.0001044856496
-3.658721948e-05
-3.662484569e-05
-3.416932001e-05
8.802961823e-06
-3.043347722e-06
1.102846053e-05
3.459324305e-05
-8.907605817e-07
-3.004401186e-05
0.0001333128415
-3.578280344e-05
-2.623338677e-05
3.908731052e-06
-4.220805424e-05
6.582019944e-06
7.625701298e-06
1.658077829e-06
1.088547696e-05
8.192727645e-06
-1.563286142e-06
0.0002284408401
5.91851112e-05
-1.086080744e-05
-9.988715363e-06
4.984161735e-05
1.247630196e-05
0.0001018055652
0.0002501234079
-2.946401915e-05
-3.662205136e-05
0.0002171395144
0.0004198340638
-4.162254337e-05
0.0001108493095
0.0005612759497
3.765485594e-05
-2.162069862e-05
-1.023704221e-05
-3.926284659e-05
-2.517938194e-05
-2.44359221e-05
-1.99756281e-05
-4.078680721e-05
-3.793252012e-05
5.458925647e-08
-3.022365849e-05
-4.520763332e-05
-3.532570127e-05
-4.481878956e-05
-4.004113865e-05
-3.728525589e-05
-2.475287601e-05
-2.430931598e-05
-2.375956144e-05
-2.324982033e-05
-4.017361866e-05
1.212294538e-06
1.601142512e-06
6.700544873e-06
3.14629047e-07
-8.548768791e-08
5.171323554e-06
3.030432758e-06
4.491427072e-06
-0.0006338889114
4.819529653e-06
6.953546757e-06
1.032084588e-05
0.0001360209067
0.0002664482711
-4.693685732e-07
1.771961895e-06
-6.631663283e-06
1.817280086e-07
-2.609625906e-07
3.201495868e-06
-1.739711943e-07
5.400996253e-06
1.36537323e-05
-0.0006578178362
0.0001177905438
-0.00060064482
1.782871186e-06
2.475221661e-05
0.02011667939
-3.987537971e-05
-2.16538261e-05
0.001495972274
-7.291362517e-05
-1.240363849e-06
-4.095801999e-05
-3.716383783e-05
-7.011632959e-05
-6.73829271e-07
-3.334261087e-07
1.468387694e-07
-1.07454523e-07
4.728359892e-07
-8.061099371e-05
-6.312546944e-07
-6.903183922e-07
-1.119241206e-07
-3.524342759e-07
1.496608005e-07
-5.99963687e-07
-4.806573362e-07
-2.705285028e-07
-6.270293151e-07
-7.105871781e-05
-9.679463636e-07
-4.016793455e-05
-6.505228907e-05
-7.64645813e-05
-2.661216224e-06
-1.754052236e-06
-3.990903031e-05
-3.344264065e-07
1.30515237e-08
-1.953582836e-07
7.030870434e-07
2.894304897e-07
-1.959472225e-07
-1.766870035e-07
2.08623416e-07
-7.147443162e-05
-7.06203297e-05
2.086106541e-06
-3.031107968e-07
-1.613372138e-07
1.089873731e-07
-7.046371903e-05
-2.689096519e-06
1.0023667e-05
7.319075583e-06
5.284693178e-06
5.076908981e-08
-8.683244887e-08
-2.02323925e-08
5.508738307e-06
-4.57769823e-07
-1.464033741e-07
-2.059169603e-06
1.682047608e-06
-1.45368139e-07
1.894093748e-07
7.574672845e-06
9.377061113e-07
1.641418225e-05
1.939244816e-07
9.801127565e-06
1.510344721e-05
3.738624329e-05
2.395959446e-05
5.118562371e-06
6.072045748e-05
1.32157758e-07
7.665227493e-06
8.413049112e-06
1.11186446e-05
9.419969604e-07
9.730592154e-06
3.02455797e-06
1.778765655e-06
2.26881669e-05
5.403098808e-06
-0.0001966482866
0.0002258660168
6.396769207e-07
1.403444647e-06
1.328848828e-06
1.299289475e-06
4.025124737e-09
-4.047316428e-06
2.425189635e-06
1.206363159e-06
1.108564911e-06
-5.175077436e-07
4.729561678e-07
2.537298254e-07
-2.777939246e-07
-3.420660826e-05
2.962789688e-08
-7.144445358e-05
-3.240793579e-05
-2.579195445e-05
3.964725156e-05
1.521250673e-06
-1.647988816e-06
2.429395938e-08
-9.73443958e-08
3.748207029e-07
8.364100199e-08
9.475017697e-07
-6.873561056e-08
-3.528436854e-07
-3.216968189e-05
-4.473860313e-06
-2.463183638e-05
-6.730954084e-05
4.11301101e-07
-1.350393631e-06
-1.83207986e-07
-2.730841337e-06
-3.239627159e-07
-9.120175323e-07
-3.6708453e-06
3.613784929e-07
-5.511462296e-07
2.124967517e-07
-6.922243568e-07
3.039458515e-06
-1.149350714e-06
2.882385051e-05
3.527943374e-05
7.33078552e-06
-1.277168876e-06
5.678911638e-07
-5.01708346e-08
-4.21428821e-08
2.596806756e-07
8.298479599e-08
-1.829328942e-07
-2.127066467e-06
-7.919231424e-06
0.003060969088
-6.416545034e-05
-7.056143213e-05
-0.0001955202663
-4.444827549e-06
-1.383885953e-06
9.342999799e-08
-4.772641402e-06
-4.587155072e-06
7.098797221e-07
-4.321184253e-07
-8.925640694e-06
2.784375385e-05
-1.001362358e-07
-8.117900039e-06
-8.256085872e-06
-3.366757115e-07
-6.085546048e-05
-0.0001899521084
-0.0001866367068
-3.545548412e-06
-4.824739617e-06
-1.664228341e-06
-2.719815814e-06
3.072431798e-08
-9.716852e-07
-3.249846002e-07
-5.303875578e-06
-7.278174045e-06
-8.330898552e-06
-6.778155894e-06
-3.964227518e-07
8.560725282e-06
-1.231154604e-06
2.615912967e-06
-5.611682423e-07
-1.904337627e-06
-2.995143734e-06
-5.829145065e-07
-0.0003806598036
-0.0003894061251
2.93349881e-07
-0.0003866392847
-7.185357699e-07
1.743115876e-06
-1.529274343e-06
9.781690075e-08
-2.935448331e-06
2.109822341e-05
-1.430408062e-06
-5.495203941e-05
-2.461102644e-07
-0.0003272539858
-0.0003645215131
-4.830314511e-07
1.621400267e-05
2.176485392e-05
0.0001124512267
5.453211831e-05
4.202394657e-05
2.002477745e-05
0.0001112257072
9.758714047e-06
3.722489862e-05
8.667414767e-06
5.749673887e-05
2.951064304e-05
-0.006234737387
0.0001767799517
-0.006169231108
1.531591374e-05
3.042421911e-05
0.008050403606
0.002948316485
0.001468930778
0.005864380475
0.007748278697
0.009744668879
0.004853569338
0.003140456911
0.01274267073
0.004037223892
0.005213264825
0.009005400407
0.002520953948
0.003180538507
-0.0001249573248
0.004150656835
0.009028893641
0.002473273871
-1.529262104
-1.488072111
-2.448065959
-2.497984705
-2.583168341
-1.404618467
-1.254390178
-1.210434104
-1.432921373
-1.394610302
-1.472494373
-1.322572111
-1.198026247
0.06253092458
-1.199284443
-1.344491263
-1.189480469
-1.320541256
-2.447816903
-0.2775545881
-2.423599778
2.158012447
1.012494263
3.162009017
-1.120867182
1.497986194
0.2219386375
-0.6906489611
-0.01030941921
0.3319158518
4.342137406
0.002460528428
-0.794677093
0.2702589852
0.1264738574
-0.0004751961859
-0.0001201958979
9.280712786e-05
9.899242528e-05
4.607137479e-05
1.206922374e-05
4.336326396e-05
9.076454866e-05
0.001045740862
-0.008027282506
0.004775703429
0.004180086967
0.001474070947
0.004328919567
0.01245247446
0.003909151812
0.004615141426
0.01310876659
0.0003875697821
0.0011511299
0.004535967526
0.006083184499
0.01072069138
0.005488980141
0.006295815922
0.005480352314
0.0002990646166
-1.329442874
-1.274886087
-1.039997537
-1.348505611
-1.809745615
-1.779891033
-0.9372416138
-1.809955148
-1.761615166
-1.002793035
-1.534491514
-1.485702156
-2.48712033
-0.21606612
0.1852603403
2.954011006
1.353958333
-0.500004422
0.8044354786
2.502672292
3.337918768
1.195842814
5.049130501
0.6712787322
-0.7035217627
-0.001501249004
-0.001454342366
8.040823477e-05
-0.005113528453
-0.002801128918
-0.005167850079
-0.002754288347
-0.004556731656
-0.0004787924894
-0.0004308511616
-0.001485419105
0.002690789075
-0.007365270148
0.00466845508
0.0124659896
-0.002405741236
0.0005831306676
-0.002646478921
0.06613414369
0.0004097407531
-0.0004086926885
0.007357669805
-0.001295185559
0.01233182469
-0.001437297884
0.006069814482
-1.685652988
-1.573700489
-2.450250045
-1.662697111
-1.643984008
0.08832033092
-1.123720172
-1.201608065
-0.7865612729
-1.204011521
-0.6132762363
1.442444025
0.8797976036
1.111945329
0.8415284792
-0.6708657863
-0.002374642124
-0.3200667349
1.480485357
-0.001099013892
-0.8358277345
-0.4504245607
1.265037395
-0.07729185166
7.912786
4.509973585
4.327864615
4.532350632
9.62476469
8.963358336
2.747749265
5.60944004
4.97418991
6.221888271
-2.58327042
9.748577919e-06
2.001334524e-05
1.224268101e-05
2.201903291e-05
0.002969037801
2.104154039e-05
-3.700326789e-07
0.002540863069
-0.001099743593
3.086622593e-05
-0.001091219761
1.841712495e-05
1.211004125e-05
-0.0004872180589
1.296082439e-05
5.066670473e-05
6.277737796e-05
0.001303282995
0.008650587051
0.006232020099
0.004013563253
0.005538630707
0.01283115826
0.005366096884
3.382267518e-05
0.002996610556
0.002373298046
0.003643387619
0.006540908624
0.00891909947
0.007722033631
0.001614145908
0.00456380317
0.006850037922
0.007057095272
0.005244984473
0.01256520223
0.007277114581
-1.585838684
-1.44321517
-1.144764829
-1.158292471
-1.528771313
-1.567010039
-1.391371376
-1.121926777
-0.9866092826
-1.123365309
-0.1716050381
-1.71090259
-1.672409395
-1.74513663
-1.512049961
-1.326217295
-1.158283
-1.389518226
-1.58811754
-1.331722211
-1.423481462
0.1026552705
3.817361329
0.7375723882
1.561220734
1.454835644
0.2957982355
0.7681294135
1.758329629
0.865338756
2.694400522
-0.6654599937
-0.9361585151
1.559029179
0.4697636175
2.331597426
1.437699121
1.451576342
3.956964834
8.163274837e-05
0.00674962447
3.7223228e-05
0.001025920877
-0.0004369714782
4.565902965e-06
0.008318230954
0.001518542268
-0.001182396827
-0.003892320928
-0.001428328417
-0.0009276365227
0.002951658288
0.007548205855
0.006036249588
0.006551613636
0.01604981712
0.006514731982
0.00906701654
0.001238159685
0.004869232088
-0.001298854965
0.002037968748
0.007833064166
-0.0006222768109
-1.64702079
-0.9460352193
-1.022363278
-1.193315343
-1.024986792
-1.037130707
-0.9384639007
-0.6237629231
-1.197395321
-1.160034725
-0.7716972477
1.265625815
0.4432517042
1.713774986
1.502956746
-0.02892276027
2.033034789
0.3038502374
0.4505035175
-0.961487903
0.03471630946
-0.9559384532
-0.5425898986
4.606759393
0.2611359711
9.236122193e-06
5.129873386e-06
2.654581074e-06
2.526543367e-05
0.005069398473
2.17905405e-05
3.665913525e-05
0.00365120286
3.7213547e-05
0.003138431701
-0.003454588328
-5.213080237e-05
-2.781558531e-05
4.868649121e-05
0.0001625176493
0.01361049359
0.001992804874
0.001903646127
0.01174244123
0.005895329339
0.006808968506
0.01207352636
-2.005586928e-05
0.008489349459
0.007133940581
-1.560848541
-1.498762919
-0.8934760213
-1.553652674
-1.509936415
-0.8772461804
-1.596908196
-1.513173162
-1.579777823
-1.064571258
-1.224737772
-1.637120308
3.088985367
1.41615909
0.8700952064
-0.2537237039
0.7345775881
0.393254716
-0.3606233604
-1.287293064
-0.01289488242
3.546456578
1.311151207
2.127271241
-0.7315384784
1.913212224
9.419701637
4.984187989
0.007458749052
3.434618162e-05
-0.0003184104568
1.692482194e-05
2.129728387e-05
2.921158044e-05
2.714477685e-05
4.452418889e-06
4.725203904e-05
1.099790166e-05
0.001997850899
6.305994659e-05
4.514597008e-05
4.736147036e-05
-0.00458245037
0.002971485537
0.005103000664
0.009044565949
0.009225741919
0.00887458071
0.004709556063
0.01625286331
0.003906701922
0.002154841534
0.007216131992
0.006719660626
0.006560571906
0.009852812675
0.001656766678
0.003031617675
0.003636129634
6.454573769e-05
0.008280594228
0.1614662341
-1.48583553
-2.063927061
-1.418841869
-2.048836365
-2.029649344
-1.049197149
-1.246941695
-1.413900453
-1.438745845
-1.443740889
-2.172073108
-2.133851731
-1.863978681
-1.867352982
-1.032349276
-1.804759525
-1.831731673
-1.86389463
-1.054978193
-0.09728104547
1.506176543
-0.6479202723
-1.439834437
6.079054679
2.01308258
0.7822214326
-0.9578098134
2.16900061
0.2043921217
-0.2044117138
2.277715593
-2.184583318
1.106598857
0.1939496276
-1.803383318
-0.005638922765
-0.005057941219
7.886777021e-05
0.0001158764977
0.0002656597171
8.874675144e-05
0.07933799981
-0.003687264975
0.0005613269762
0.01535199586
-0.0007382858852
-0.0006490004627
-0.0006919684362
-0.004410722399
0.1218413128
0.01074736214
-0.0009392983213
0.001461976593
0.005101698768
0.005737680447
0.002588049412
0.006951708054
0.004132285345
-0.003769582131
0.002984807011
0.007045431557
0.01278886352
0.005672112745
-2.08641182
-1.206736479
-2.194039009
-2.189389592
-1.241647011
-1.228537761
-1.238497636
-2.31799157
-1.56160009
-1.189822354
4.892066147
0.1217550719
0.2094627153
4.025074077
-1.11893573
2.693187751
-1.083420121
-0.04777584453
5.863838819
-0.1755078159
-0.9045399773
1.396629073
3.21437833
7.79948856e-05
0.06966933724
3.030136539e-05
0.0001030998436
1.328967451e-05
3.700229625e-05
8.247257894e-06
9.093406119e-06
7.233850906e-06
-0.001229138575
-0.001111936049
-0.0001091693816
-0.001149294668
-0.001189577723
0.0002500663171
0.003666629364
0.008749582205
0.005770672118
0.005269962482
0.007215507013
0.004035673929
0.01129347951
0.001884481693
0.005289744842
0.003846135865
0.005578565761
0.006748715656
0.003794209701
-1.838565692
-1.651814378
-1.5528738
-1.600649028
-2.463435002
-2.475628601
-1.610409771
-2.443967038
-2.413196545
-0.9169685353
-1.129263142
-0.678241924
0.01599564808
-1.166210679
-0.9924231953
0.1006197052
-1.871479678
2.467838069
0.3424854247
-0.4812318183
1.41229159
0.3250974937
-0.1444682378
2.093465841
-1.070501989
0.3857053738
4.812230554
6.232084389
7.707687829
2.58059751
4.16215156
8.068975228
6.394334538
2.722649376
8.938562556
3.18379948
8.496550657
3.561124824
4.297883879
-0.00619090256
-0.006305461132
9.67259057e-06
-0.002747058142
-0.006204241284
1.125234337e-05
-0.0055852217
-0.005630761997
-0.003121586627
3.212533387e-05
-0.005676375349
-0.003066561957
3.292631669e-05
6.542890362e-05
0.004260260488
5.266718128e-05
0.0001198057693
9.105700213e-05
1.6040506e-05
7.950189855e-06
2.71792585e-05
-0.001457805996
0.002679952003
0.002992511257
0.001472597224
0.001829831432
0.008158228918
0.008771340288
0.003512169562
0.00237658062
0.001665636381
0.00318418295
0.01548121422
0.006521185245
0.0003344314449
0.006934239591
0.004076851231
-1.128058285
-1.136302806
-1.668858274
-1.730457529
-1.127968203
-1.143961836
-0.7971649644
-1.153492752
-2.083547722
-2.102564225
-1.817861159
-1.836822175
-0.2888071396
-1.110455827
-2.271382548
-1.291193196
-2.272761486
-2.276342954
4.386120641
3.01738887
0.2998505059
1.687351414
-0.6227943675
-0.3413928251
3.28307655
-0.7771272102
-1.851238832
0.9927867887
0.6045300379
3.209719159
2.471722006
-0.3709499621
-0.008404916104
-1.122004684
3.053399948
1.093662413
-0.1437859562
3.477930319e-05
3.991606684e-05
3.459690234e-05
0.003603148571
-0.0004958542686
5.191919338e-05
0.0002004195202
1.333139905e-05
0.0002093232768
3.801328393e-05
2.71976336e-05
0.004141472823
0.01608276124
0.00119071606
0.003656117099
0.001875769884
0.01064452001
0.008980941814
0.0001148811211
0.009725794839
0.004535494597
0.005169330073
0.004481402069
0.01269627803
-1.818319514
-1.33320664
-1.237044177
-1.850593266
-1.742708881
-1.737609876
-1.16314977
-1.298725527
-1.539008953
-1.104924447
-2.218594972
-1.645122806
-1.625186035
-1.673732286
-1.423402286
-1.724581868
1.791426732
3.58887666
-0.0115161833
-0.03579563021
-0.2930964637
-0.3138034984
-0.1554824952
3.223647769
0.7660995564
0.1412788999
-1.720154667
4.773665965
1.906377223e-05
3.477610397e-05
1.049894444e-05
1.699867508e-05
0.0002684066081
2.903383174e-05
0.0008430067803
0.09187324227
3.952516231e-05
1.318236129e-05
0.00032102296
3.713420717e-05
7.293216392e-06
0.002297012215
0.006831238625
0.002786161368
0.006373178631
0.002906239252
0.01257350128
0.004902850692
0.004788786751
0.01089798375
0.00249974646
0.01024917558
0.008536278813
0.0001518075604
-0.7531028315
-2.267740105
-0.7154135215
-1.431534664
-1.468980409
-0.5441238703
-1.500119552
-0.8069406798
-1.582261985
-0.9075732993
-1.637388708
-1.546628165
-0.8549347408
0.4408371969
-1.203059744
0.6565672213
-0.04455540177
0.7459139884
0.2871630157
-1.025894365
-1.170239041
1.443700932
2.6011816
-0.3116311695
0.4259650326
3.919389197
8.450617227
7.418093296
4.674336679
11.49955358
5.020284932
4.692506765
4.302340353
6.016918606
-0.1657963046
9.166573595
5.581338699
5.935378784
5.900570988
8.93632681
4.970799842
5.88462198
6.126803335
4.916942367
4.691162618
6.219179517
10.15319133
-1.193850999
4.82921189
4.967435841
-0.3305991268
-4.276926413
6.911818435
6.306561771
6.364406206
0.653736235
-2.830498142
6.729666287
10.29480957
9.538703121
6.566280901
6.655195748
6.371739372
10.30536891
9.496428568
6.829749258
6.733405205
12.2086514
10.97963369
6.996484657
11.23245791
11.2399928
6.643855858
5.968517869
7.072613837
12.15309219
13.68562216
8.42620682
7.229157453
7.179211975
13.87160163
12.79866284
9.29217983
8.745247569
6.643444645
6.672449523
6.055460076
5.784464714
8.17461465
6.160890559
4.341672128
7.052928083
5.966740019
7.347979056
6.756596229
5.620939737
4.62804982
7.188244995
7.773542453
7.775740861
8.63461638
8.023125371
8.236062579
8.327943565
8.31213147
6.014467728
8.096021543
6.943786815
7.450117647
7.73582278
7.652167526
7.761043348
8.620624195
8.547702398
6.382983216
8.768359453
6.942041393
6.120772772
7.296507232
6.527451988
7.194356887
6.722880202
9.191065341
7.39867912
6.669470482
7.586973371
6.414381711
5.611231884
6.976948577
6.537021771
5.233859348
3.935369032
8.551651324
4.169844455
4.170717233
7.215061641
8.802021383
7.050522209
6.367185513
7.941275636
8.280184019
8.114816251
7.846069868
5.771753226
6.017479554
10.13781627
7.305107756
9.284469328
5.490899482
5.88404071
10.12042671
8.267192171
7.766995093
7.339937711
7.173284831
-0.4210390896
8.912000421
7.14809366
8.510214733
7.593963002
6.08365252
9.64280459
8.484553026
7.006198062
5.289610051
7.686986879
0.4313888325
-0.7363051009
6.29243504
6.335959051
5.680298619
6.096054992
-0.2786379026
9.037405609
5.898915284
7.117827107
6.290724414
7.229930549
7.302698265
8.816638524
9.681791092
9.904167644
9.293767776
7.895167867
8.00792689
10.9726969
7.716444841
8.460925447
9.863807465
8.621522491
8.522345997
11.06258934
8.003270457
8.400403157
10.64415403
7.18458653
6.8791691
-1.178892079
5.36499598
5.452736405
-0.350467832
4.086778362
8.251213878
7.339481834
6.482403872
8.596924396
8.635415603
0.6791509188
-1.470663215
9.052314888
7.454398201
0.411605047
8.697589916
-2.314268446
4.662356082
7.516055248
8.016072136
6.858377773
4.419663361
4.715476594
8.656459042
6.109939533
5.928610582
9.400401631
9.903134129
9.2785909
9.101239968
10.27577139
8.86546041
7.25870046
9.717341068
9.193293998
10.12264911
7.130782879
10.56418972
8.513450371
5.842380413
7.742830722
6.997093066
7.66613677
5.325598332
7.406372539
7.059598946
5.341693442
6.896851527
7.533275809
6.510119957
7.75454395
7.635267744
5.49723903
10.0785296
8.758260507
8.994233411
7.837916439
9.290063984
8.904417895
6.131087882
5.762521622
6.396131338
10.25062938
9.187714478
9.834172841
9.116998395
7.249229426
9.915498118
6.294281555
9.743253973
9.851078838
6.281353779
10.90962063
6.900638752
-1.65933021
3.106837613
4.592235406
5.760069288
3.595620885
5.465383452
6.475344594
3.353653608
3.621176908
3.662995642
3.360910149
5.420101608
5.878008745
6.952932823
0.5596978144
6.070682924
8.006639455
5.898898378
7.563729593
8.946970664
5.911551333
7.549699367
7.134305646
8.465115916
5.994036271
8.795468486
7.212968613
-0.447044023
-1.973038631
7.132765728
8.979960859
9.376258388
6.720425569
6.150503776
7.088476969
5.093489017
5.224239372
5.926935603
7.85296539
7.537552877
9.281439299
9.773896049
9.087624957
8.772303008
7.784700404
9.562334325
8.755819012
8.052747103
8.5631978
9.700755265
8.009247674
9.767677175
10.40431353
10.23759312
8.587059927
9.387836038
7.381219334
8.2375054
10.75822657
10.71454303
10.4560102
4.478695977
3.77845144
8.344849794
3.687827794
7.913742928
6.992701187
6.65995328
7.288995227
-0.4898245857
7.289912858
6.811065402
5.377986425
5.285939045
5.125468829
10.50766416
8.960931356
4.662330108
4.557321743
9.579415791
10.67665253
8.831968563
9.028764262
8.579897226
9.735539688
9.216648805
8.327164133
8.66469487
6.038637818
8.066563096
8.642383435
6.138451487
7.725525454
10.20465538
-1.640148681
-1.063561401
7.068058189
6.179123436
6.864796114
5.369316164
6.660144027
4.850706636
4.688161581
6.808082838
6.401188593
4.599360758
7.472619632
0.2708367542
8.651613584
6.326142414
-1.510526222
6.087604847
7.900410267
7.607146305
9.305870393
7.799943407
8.238949047
7.821796174
7.930986504
7.193325801
6.218186834
7.934281222
6.922494072
7.619641674
8.765642517
9.325249314
9.565601135
8.803027065
9.344924651
8.944301348
9.475594663
9.279813813
9.232972721
8.648513624
5.502516962
6.558379844
6.772068435
7.696416267
7.069511235
7.791127054
6.554009344
8.133856496
8.723349648
8.864180388
7.901082999
7.469005412
8.930237515
-0.004510981646
5.408187595
4.059591492
7.981886076
8.893951676
5.55301948
5.93091791
4.422176598
6.817486976
8.321738256
7.228930049
5.086074962
6.402072153
5.652962917
5.026719985
4.651508646
7.391922225
8.36280642
9.541318566
6.792959195
8.712519117
9.87354057
9.078343895
9.265713295
5.721500426
9.189709042
10.07981775
5.680906269
6.406111818
8.992692583
7.213234095
6.935302959
9.576709439
8.763314514
7.126390668
6.744658704
5.739095874
5.61771481
6.743274638
6.437642872
-1.966355774
7.393571347
5.380177287
6.956545831
5.808245705
7.800694613
-0.8589384771
5.341884149
8.092353654
7.473685166
4.555810612
7.056232549
5.457551958
5.822833299
6.558678985
6.982381308
7.085511405
7.362310141
5.766709236
8.495032728
8.009712999
8.963378413
7.773437406
8.000043076
7.078289353
9.181818785
6.127593181
7.596153056
9.578325515
7.739100588
0.9879234759
-0.7156801426
7.699676722
6.591009748
0.6418000934
9.080022254
7.542145047
7.076867137
-1.670958496
6.565205294
6.268293697
10.29887827
7.87429094
-5.61738249
6.393933821
7.247526319
6.983608218
9.469790569
12.4609086
8.997221184
8.691071938
9.115869219
8.099936133
8.630897546
10.27882711
9.632727759
9.171559208
9.81379533
8.497856324
11.37710267
9.42888894
-2.9763688
7.365468525
11.18404206
7.578361569
7.672435013
)


// ************************************************************************* //
