/*--------------------------------*- C++ -*----------------------------------*\
  =========                 |
  \\      /  F ield         | OpenFOAM: The Open Source CFD Toolbox
   \\    /   O peration     | Website:  https://openfoam.org
    \\  /    A nd           | Version:  7
     \\/     M anipulation  |
\*---------------------------------------------------------------------------*/
FoamFile
{
    version     2.0;
    format      ascii;
    class       scalarField;
    location    "2/lagrangian/coalCloud1";
    object      VID2;
}
// * * * * * * * * * * * * * * * * * * * * * * * * * * * * * * * * * * * * * //


2000
(
-7.054098999e-09
5.33912263e-09
-8.215382798e-08
-5.841155161e-08
-3.516749235e-08
-4.570722729e-08
1.174124604e-07
-9.636714775e-08
1.754050002e-09
-3.791599873e-07
-1.507110581e-07
-1.850536502e-06
8.561273263e-08
-2.517538429e-07
-3.647342993e-08
-2.40282328e-06
1.788738313e-05
-1.451015673e-06
8.132912356e-07
-4.232958183e-08
-1.432069695e-08
-8.057017161e-07
-2.157614172e-07
4.719359524e-07
-2.730868875e-07
8.926147543e-09
-3.922923278e-09
7.344198374e-09
-1.07215732e-08
-2.735593392e-08
-5.034427121e-08
-2.710517691e-08
1.853107463e-08
-4.514424067e-08
1.189770622e-07
-6.463961548e-08
5.998257141e-09
-1.795653243e-06
-1.298525163e-07
-4.446689608e-08
-3.848843438e-09
1.438202135e-08
-2.343751147e-06
4.033253114e-07
1.15873095e-08
-1.009411912e-07
-7.767891427e-08
-1.433798152e-08
8.660827097e-09
-7.521963195e-08
-7.077663121e-08
-2.243791336e-08
-7.567204655e-08
1.050772068e-07
-1.286586848e-07
7.284635062e-09
-7.276760058e-07
-2.482865799e-07
-5.753329801e-08
-1.404487547e-08
2.573666707e-06
3.248682446e-06
-2.789153724e-07
2.79170098e-06
3.247769849e-06
-2.122762444e-06
-9.947063137e-08
-6.958611661e-06
-1.992241603e-07
-2.902252578e-05
-2.00380972e-06
-6.263519683e-07
-1.611053302e-05
-1.614862201e-05
-8.200218193e-08
-1.439683517e-05
-8.102197286e-07
-8.880301665e-06
-9.779525418e-06
-2.214236187e-07
-5.824129359e-05
-9.764619863e-08
-3.060926486e-06
2.230803201e-05
-8.206448694e-07
5.148029208e-07
-4.466199175e-06
-4.8707279e-07
-9.038527886e-07
-5.601972585e-07
-5.922787805e-07
-3.1040124e-08
-4.292498326e-08
-1.43524452e-09
7.709492766e-11
-1.802183706e-08
1.995274695e-09
4.906033663e-09
-1.144188725e-06
-4.47207982e-06
-1.789485429e-06
-8.932700041e-07
-2.254405885e-06
-4.365004268e-07
-2.74375912e-07
-8.524216083e-09
-5.843047088e-09
-1.195263116e-08
-2.676145452e-08
1.892589024e-06
5.848128256e-06
-6.262335563e-06
6.918864254e-06
4.441175064e-06
-2.598407111e-06
-3.672827658e-06
-5.707349482e-06
-3.308977515e-06
-3.319348421e-08
-5.126304514e-08
-1.452576609e-08
-3.865270493e-09
-6.078500397e-09
1.979155187e-09
-4.886213846e-08
-0.0004182643952
-5.708706993e-06
-8.131049949e-05
-0.0004127740611
-9.459477392e-06
-4.633604703e-06
-2.601929387e-06
-3.183100536e-07
-1.32980027e-07
-4.482251518e-06
7.503714045e-08
-3.420707461e-06
-5.682844473e-11
1.056668152e-08
-1.80425561e-08
-2.341163291e-09
1.443691956e-08
4.67542742e-09
-1.496623298e-08
-6.961953236e-11
-1.286623437e-08
-8.854215555e-10
-3.297119244e-10
3.912868626e-09
-1.255862782e-08
-1.483646872e-09
-1.97074787e-10
-2.421161456e-08
-2.464009427e-08
-5.51281155e-08
5.069355158e-09
-1.118032688e-07
-1.849003715e-08
2.375667399e-09
2.82156673e-10
-7.695329485e-09
-1.114213471e-09
3.666914286e-09
1.631050885e-08
3.941716634e-09
-1.809433417e-08
-3.698778205e-08
-3.000976963e-08
-1.802607698e-08
-9.561664026e-06
-4.055284675e-08
3.014909421e-08
-4.074410996e-08
8.044359115e-08
-5.829548254e-08
-1.913279489e-08
-1.418166601e-07
-1.683636106e-09
-2.50079548e-08
-7.055197517e-06
-2.862856263e-05
-8.450178914e-06
-1.707886326e-07
-8.214929152e-06
-2.918007207e-05
-3.397297815e-05
-2.419049183e-05
-2.62862457e-05
-1.234414642e-07
-2.379067773e-05
-5.441810594e-06
-2.391971736e-06
-1.06563542e-05
-1.973043329e-08
-1.985603987e-09
-2.483700481e-09
-6.662421032e-09
-5.622798797e-07
8.131162847e-08
-5.091529545e-09
3.614317051e-07
-3.725878619e-07
-2.019189678e-07
2.06950438e-06
-6.135884731e-09
-5.558881416e-08
-2.645472912e-07
-3.149051565e-07
-2.528283715e-07
5.401699441e-08
2.753304389e-07
-2.852934266e-07
6.021554507e-06
-6.56893452e-07
-5.306497364e-06
-5.226379773e-09
-5.709715617e-10
-3.364135777e-07
1.844521776e-07
-3.508362906e-10
-4.662816647e-09
2.509085242e-07
-1.088695842e-09
3.560618361e-08
-2.621039063e-07
-4.802637531e-08
-3.079063615e-08
-1.761480304e-07
2.472920664e-08
3.418180245e-07
1.809663884e-08
-3.702575153e-07
-2.737267901e-06
-4.247963691e-07
-2.333898372e-08
4.829247557e-10
-7.427426868e-10
-1.959872299e-08
-2.400610361e-07
-1.417582106e-08
-2.241474464e-08
-5.11614566e-09
-2.280542705e-08
-2.4400508e-09
-4.728324716e-08
-1.761330268e-07
7.414187514e-09
-9.65541801e-08
-1.423821587e-07
2.65093381e-08
-5.048999528e-08
1.404315756e-07
-1.868404917e-08
-7.279131636e-08
-7.591986523e-08
-1.24667836e-07
-1.214960021e-07
-5.123205903e-06
-1.255396938e-07
-2.95761162e-06
-1.822598864e-05
-8.508658408e-08
-9.388200698e-06
-9.777092551e-06
-3.012763889e-07
-2.714704717e-06
-2.160460998e-07
5.822702737e-10
-1.58198184e-07
-3.925869198e-05
-1.997300831e-07
-1.195921331e-05
-5.070805875e-07
-4.49733079e-07
5.060446133e-08
-5.703055097e-07
-9.637591729e-07
-3.859337785e-07
-2.260142176e-06
1.03407327e-05
-3.073718619e-07
-8.071271587e-07
-2.129087554e-07
-3.576035856e-10
4.263144264e-06
-4.779388724e-07
-9.582068652e-09
-7.914412474e-07
1.04625901e-07
3.839021226e-08
-2.096483849e-07
5.02123968e-07
-2.14243262e-07
-1.527117236e-07
-3.724977981e-07
-8.280741908e-07
-5.810232871e-07
9.041516462e-08
-1.150292071e-07
-4.182410211e-08
1.748627676e-08
1.023749313e-06
-4.225478845e-07
-2.406403595e-07
-1.186747216e-07
-4.055979821e-07
-1.922803764e-07
-7.530287352e-08
-4.821723685e-07
7.83225846e-08
-5.027403391e-08
-9.411056157e-08
-1.167793275e-07
-6.178953011e-06
-9.732517602e-08
-8.304987917e-06
-7.501050782e-08
-2.168435992e-05
-2.65224833e-05
-1.935395364e-07
-1.483339334e-07
-9.795920049e-06
-4.728477831e-05
-3.319096077e-07
-9.577957962e-06
-7.028166281e-08
-7.168767691e-05
-1.739571203e-05
-9.893533645e-06
-1.106666283e-07
-2.571619503e-05
1.080677894e-09
8.751643757e-09
-7.631217602e-09
2.433720905e-09
1.678265707e-09
-6.553699516e-08
-2.091284481e-07
-8.456131559e-09
-9.335160285e-08
-2.731166595e-06
-5.882348098e-07
-1.291802028e-07
2.099027638e-05
9.041342746e-07
-4.91474071e-07
6.022412069e-09
9.26471122e-10
-2.527799484e-08
-3.689905143e-08
-3.58414412e-09
1.117666419e-08
1.004134519e-08
-6.777669066e-08
-3.777012343e-07
-5.649790304e-08
4.128711041e-07
8.715277056e-07
2.302893712e-07
7.573935907e-07
-1.135554525e-06
-2.916297605e-08
2.08229621e-09
7.346725339e-09
1.487638805e-08
-6.741826881e-08
-3.125569126e-07
-5.927971139e-08
-6.647521306e-08
-5.13276209e-09
-3.398417789e-07
5.331270089e-07
-1.213249994e-07
-3.792185437e-07
-2.392726697e-09
-2.796130855e-07
-3.09069285e-08
-9.335892667e-08
-1.969796223e-07
-1.28609485e-05
-2.03457717e-07
-1.565536453e-07
-1.282310459e-05
-1.165578302e-05
-9.195704109e-07
-2.104015599e-05
-6.456640689e-07
-2.9681195e-07
-3.361520601e-05
-1.422642159e-07
-3.255710081e-08
-3.589815188e-07
-2.656289663e-08
5.73691504e-09
1.335226045e-08
-6.314894756e-08
-3.83384645e-07
-6.066831995e-09
3.060419029e-09
-7.71721629e-08
-2.215572133e-08
-3.634881604e-09
-2.36117488e-07
-2.080789152e-08
-3.276380944e-09
-3.108717228e-08
-5.051811537e-08
2.675304547e-09
-4.036379556e-07
-2.511687108e-10
-9.69409459e-08
-1.135089648e-07
-2.064068658e-08
-2.299121667e-07
-7.605016723e-07
-5.717484919e-07
-1.689717005e-09
-2.846529225e-07
-6.859974116e-07
-8.866989754e-09
1.018799933e-08
4.61241198e-09
-2.989736678e-07
-2.273362679e-09
1.462465073e-08
7.477013869e-10
8.196894552e-10
7.816672004e-09
-1.215567314e-07
1.526898967e-08
-2.137148726e-08
-4.882538381e-08
-5.06942343e-08
-8.219194168e-07
-3.937336747e-08
1.072817583e-08
2.477727123e-08
6.125518578e-09
-1.040297022e-07
2.271864252e-09
-7.751116619e-08
-9.478406204e-08
-2.160915655e-08
-3.695293432e-09
-6.352839206e-08
-3.028200651e-08
-1.141512157e-08
-2.34888439e-08
7.865634671e-10
-1.938943738e-08
1.818231826e-08
7.413473471e-08
-5.296127363e-07
-2.314901471e-07
-2.621323968e-07
-2.406402513e-06
-3.793053289e-05
-2.335509509e-07
-1.015645976e-07
-2.984017196e-06
-2.124806947e-07
-1.065613139e-05
-2.9633663e-07
-1.896378738e-07
-6.086637824e-06
-3.754393876e-07
-3.422455646e-07
-3.212103183e-07
-9.823235735e-07
-6.214685431e-07
-2.48533135e-05
-1.251268215e-07
-6.780265387e-08
-7.470850125e-08
-1.106711153e-08
-7.131344319e-08
-1.606233879e-07
8.993191615e-08
1.165401289e-07
-1.092662307e-06
-7.046438781e-07
1.527201904e-06
-2.94100953e-07
-1.732827773e-06
1.598865248e-05
-5.462100092e-07
-1.701437286e-07
-1.479725749e-07
-1.363800844e-07
-3.848478998e-08
3.128110442e-08
-4.189122558e-07
-2.162006681e-07
-1.465364128e-06
1.211549541e-06
-4.422805939e-07
2.630893837e-07
-3.412945495e-07
-1.453093853e-06
-9.244046675e-08
-3.498189459e-07
-2.002854386e-07
-9.111374156e-07
3.834375223e-07
-0.0001920497318
-1.165012914e-06
2.427766981e-07
-9.303582484e-07
1.358252274e-07
-6.135187313e-06
-8.033418492e-07
-5.954115603e-07
-2.465321933e-06
-1.894491305e-06
-8.552116339e-07
-0.000226587436
-2.27970769e-05
-1.457206266e-06
-6.582138936e-06
-9.986566723e-05
-1.929307325e-05
-0.000131529358
-0.0003774004975
-3.178183641e-06
-3.980017006e-06
2.007487998e-06
1.430246082e-05
-2.554825315e-08
2.782377473e-06
1.147000282e-05
1.536962373e-06
-2.205038079e-06
-6.051369348e-07
-2.978176769e-06
1.894684946e-07
-4.420096264e-07
-3.538682666e-06
-9.980792233e-07
-1.726135083e-07
-6.283835311e-07
-2.028604e-07
-1.754687659e-06
1.249370668e-07
-4.862037454e-07
4.111329682e-07
-1.169767364e-06
-5.888102583e-06
6.837507779e-08
-2.032634265e-07
-2.105153794e-06
-3.035943073e-06
-4.491088855e-07
-3.049885825e-07
-2.435958506e-06
-1.826151765e-07
-2.629072035e-07
-1.970930384e-07
-1.177787415e-07
-4.21822616e-06
-1.533582521e-06
-1.269033e-06
-7.757489836e-06
-6.270096772e-06
-2.611447958e-06
-0.0003769135216
-4.874454101e-08
-7.878391957e-07
-7.023267011e-07
-1.316322822e-07
-1.622422536e-07
-5.966536854e-06
-1.888764543e-06
-2.937565206e-06
-1.730595371e-05
-9.263619036e-07
-0.0001301746493
-7.867942537e-05
-1.627653655e-06
-2.808425816e-05
0.0009377946539
8.303226587e-07
2.37487866e-07
3.096451725e-05
8.9113536e-07
-9.860887681e-07
6.568167025e-07
-2.468024454e-07
-3.162522672e-06
-2.136280472e-09
-7.907041827e-10
-3.61599519e-07
-3.854734863e-07
-1.016452817e-06
1.892533428e-06
5.878050754e-09
-1.97829292e-08
-2.452398284e-10
-4.123639559e-07
-8.216697252e-07
-1.326875068e-09
-4.961945524e-08
-4.608431364e-07
-4.72956435e-08
7.141348482e-08
-3.694992382e-07
1.178025355e-06
1.870695817e-06
1.602014092e-06
4.32031097e-09
-2.945864556e-07
7.443805155e-07
1.781203948e-09
-6.702563643e-09
-1.791366697e-07
-1.08425167e-06
-7.531132893e-07
-3.647449717e-09
-3.943169263e-09
-2.957686208e-07
8.558968496e-07
8.142755489e-07
-2.229136167e-07
-7.293084611e-08
-1.319994818e-08
-2.347388729e-07
1.024393851e-06
-1.244142857e-07
-5.466333547e-07
2.372268117e-08
-1.870151595e-07
-1.294352728e-07
-3.346482505e-07
-2.684073996e-07
-6.34387423e-07
-8.65544441e-08
-3.291380112e-08
-1.213652636e-07
4.715848602e-08
-6.166837101e-08
-5.757614341e-07
-1.878973977e-06
-5.156841978e-07
-3.112854561e-05
-4.741298159e-07
-6.050633809e-06
-1.593266104e-05
-5.629260848e-05
-3.749638941e-05
-8.167543071e-08
-8.940240001e-05
-3.017309678e-07
-1.767566878e-05
-1.536356616e-05
-1.79632171e-05
-3.462329648e-07
-2.270032441e-05
-7.460023573e-06
-3.359083055e-07
-3.398542839e-05
-1.342382022e-05
-0.0002849547453
-0.0002689057605
-5.617698813e-07
-7.933865566e-08
1.13566327e-08
-2.01693411e-08
-1.551067205e-07
-1.590156329e-07
-1.464672416e-06
2.059531788e-08
3.124681405e-08
2.773401953e-09
-4.300334822e-07
-2.281603477e-07
-6.325793139e-09
-2.278887469e-08
-3.509476934e-07
8.285722246e-07
-6.387864231e-07
-4.272966962e-07
2.703628247e-06
-4.340069574e-07
-7.448057163e-08
7.48007678e-09
-5.005094575e-09
-6.052312841e-07
-4.485651225e-09
-7.58273781e-07
4.621507518e-08
8.967517909e-09
-2.248764226e-08
-6.562023077e-07
-4.849560159e-07
6.03925009e-07
-1.113765811e-06
-2.346806015e-08
8.024284695e-09
-2.768258004e-07
-1.179790571e-08
-3.31695027e-09
-2.128115345e-07
-4.157080456e-07
9.205624318e-10
3.450796962e-08
-1.791937525e-07
-3.676067804e-07
-1.550967242e-07
-4.941497058e-05
-7.766657792e-05
-1.260227589e-05
-3.525007902e-07
-2.574733604e-06
-4.115475957e-08
-9.133119555e-07
-2.466584571e-06
-2.622091983e-07
-6.127038627e-07
-8.448804888e-07
-3.568579703e-07
-0.004391493525
-2.046069614e-06
1.000508877e-06
1.204736479e-06
-4.474888807e-07
-1.499361487e-06
-1.068803693e-06
-1.261245339e-07
-1.098651094e-08
-2.055747786e-07
-2.435868243e-09
1.234958347e-07
8.26085609e-07
-3.4582138e-08
7.777726731e-08
-5.473292429e-08
-4.811444639e-08
-3.121310034e-07
5.445704254e-07
6.567824263e-07
-3.788634965e-07
-1.729797069e-09
-1.72471686e-06
-2.037526329e-06
-4.809513407e-06
-3.048126686e-06
-2.565551778e-08
-4.346014226e-06
-2.34097286e-06
1.195608288e-07
-1.337748733e-06
-8.219419172e-08
-1.542670953e-06
-7.395200408e-08
-5.155637375e-07
-1.180940768e-07
-3.621712159e-08
-1.204732953e-06
-1.53399532e-06
9.116488769e-06
4.946187754e-06
-2.210826097e-06
5.671772044e-06
-2.051269086e-06
-7.850110106e-08
-1.417401927e-06
-3.788327818e-07
-1.190902768e-07
9.428010886e-08
-8.943473426e-06
-0.0003931651363
-1.839470137e-06
2.754173889e-06
3.809681403e-06
-1.050938621e-07
-2.300867383e-05
-3.86178088e-05
-8.887282899e-05
3.631882992e-07
-5.283128856e-05
-3.127668799e-05
-8.928478466e-05
-8.80555981e-06
-5.153503801e-05
-1.347249042e-05
-5.604718104e-05
-3.884044767e-05
-6.342871009e-05
-0.0001598310183
-8.280863695e-05
-1.052083763e-05
-3.132574225e-05
-0.01309577305
-0.006362915268
-0.002765474242
-0.009963283232
-0.0144584699
-0.01495548915
-0.007277782506
-0.005431448172
-0.01945336339
-0.006101275103
-0.008873382992
-0.01373214874
-0.005547828087
-0.004903669926
-0.01098509619
-0.008029423426
-0.01378375553
-0.003578729868
-0.1026539512
-0.02459587975
-0.01769282292
0.01835701915
-0.1877091367
-0.00949535954
0.002010784259
-0.1633968362
-0.02781657779
-0.0111089461
-0.05333036112
-0.04887743304
-0.01170998346
-0.02295733152
-0.03543155474
0.002092433333
-0.02060969599
-0.05279442245
-0.245769828
-4.169721721
-0.3120687571
-12.74333392
-6.317150496
-10.86632902
-0.1817445983
-7.508021404
-4.108083347
-1.270681416
-5.628376749
-4.375886518
-14.43282603
-4.759723013
-1.068151081
-4.106915346
0.002779779542
-2.168048162e-05
-2.195059035e-05
1.44465394e-06
-9.787021066e-05
-6.687273873e-05
-1.693824777e-05
-6.785682769e-05
-6.77246911e-05
7.602356093e-06
-2.237178207e-05
-0.006065359418
-0.006921927517
-0.003477445534
-0.005483697142
-0.01980787577
-0.006865532715
-0.01017121079
-0.02055311799
-8.352283627e-05
-0.002728851412
-0.007197245994
-0.01018970152
-0.01827027947
-0.01080586113
-0.01018366384
-0.009045347205
-0.01442712842
-0.0607367363
-0.0153651511
-0.05283817222
-0.0159829093
-0.0833078404
-0.01919932347
-0.04773486634
-0.04003955001
-0.01622418278
-0.07328918173
-0.11096783
-0.1040618723
-0.01142070216
-3.240374452
-5.510113569
-11.22039432
-8.27469236
-2.329293676
-5.316226074
-10.09570189
-10.22021365
-7.90943284
-7.473648118
-7.042562639
-2.750619003
-4.097418879e-05
-3.739282974e-05
-5.471044938e-05
-0.0002929073978
3.936331794e-06
-1.304418184e-05
8.763172676e-06
3.624939638e-05
-2.942827466e-05
-5.518128087e-05
-4.370896805e-06
-0.007981301916
-0.0001312701268
-0.0114055696
-0.02341711678
-0.0003240901447
-0.005246232277
-0.0001384885642
-0.008415690933
-0.008045179816
-0.0001109534394
-0.01479230299
-0.0001121610066
-0.02225114476
-4.843039206e-05
-0.01491994611
-0.0002841028408
-0.05290140685
-0.007746490099
-0.01797824966
-0.03522728996
-0.01859943839
-0.05113650114
0.006696527264
-0.03178539043
-0.01370970975
-3.011212362
-9.64963126
-9.040295294
-7.928870861
-6.500243166
-0.04747173974
-3.233762143
-1.786789973
-7.008310538
-3.025445987
-0.03564311872
-1.727251313
-6.546619367
-2.709493373
-8.130467824
-2.846807077
-6.89460519
-5.803504036
-11.64661607
-7.463959965
-11.20373823
-7.03698753
-9.881093514
-2.646930793
-0.07723935316
-1.772249495e-05
-2.76625406e-05
-2.234954641e-05
-3.696787169e-05
-0.004770627395
-3.036274953e-05
-3.732965822e-07
-0.004903182669
-1.327178565e-05
-5.10530298e-05
2.446430814e-06
-1.213593069e-05
-2.334066411e-05
-4.349524694e-05
3.709145227e-08
-6.783038014e-05
-6.923141305e-05
3.112051144e-05
-0.01409627452
-0.009785882997
-0.007454825661
-0.008449919381
-0.02031725377
-0.009497907015
-5.580243917e-05
-0.005117842277
-0.005412434537
-0.007676772884
-0.01179497049
-0.01542109022
-0.0137093165
-0.003461381471
-0.006988569682
-0.01216127155
-0.01225716467
-0.008116516499
-0.01845201611
-0.01103534149
-0.03029048106
-0.004757905824
-0.04346837803
-0.02399329612
-0.01306371265
-0.05516393093
-0.04114112167
-0.07188362074
-0.002393924212
-0.01861756337
-2.913067791
0.0112527147
-0.01866248226
-0.0327607088
-0.2023417559
-0.02866492964
-0.3330702494
-0.04158058476
-0.06866604746
-0.04508059686
-0.002437074324
-4.526092855
-12.58133934
-6.781690208
-7.530966096
-7.405689305
-3.01370769
-4.261744608
-9.300815118
-8.96247341
-8.401547836
-0.6513637879
-0.5423929898
-9.124643285
-7.329424924
-9.679716759
-8.43726634
-7.343059177
-12.87615572
-9.339937286e-05
0.000144529377
-2.428526831e-05
-0.002749081554
-7.199350797e-05
-1.765369396e-05
0.0003363965495
-0.00442595028
-7.243437143e-05
-5.983440539e-05
5.537798103e-07
-3.396619679e-05
0.0002808614325
-0.0117368745
-0.01020390964
-0.01239295415
-0.0248534511
-0.01027983479
-0.01839025715
-0.002908634503
-0.009312761879
-0.004986971109
-0.00531422374
-0.01382329745
-0.006245151276
-0.03964229338
-0.07328105362
-0.03984453622
-0.01717022998
-0.008459405484
-0.02409683707
-0.01906561078
-0.8673874326
-0.02696833445
0.005205964888
-0.8499158416
-8.394745981
-5.729563207
-8.12630312
-8.278553393
-2.794333745
-9.17362151
-4.332744972
-5.527222839
-0.05513437665
-4.167430213
-0.06913325534
-0.9578531582
-6.037182656
-4.845703856
-1.271654619e-05
-8.734899756e-06
-1.291659736e-05
-3.459571536e-05
-0.007715921337
-4.065133579e-05
-5.594092927e-05
-0.00653833321
-6.28480941e-05
-0.00553132485
-8.250730703e-05
-4.059436784e-05
-8.067518106e-05
-6.250431181e-05
-9.677850458e-05
-0.02174807696
-0.003928901455
-0.00381613041
-0.01962372726
-0.01104614301
-0.01183631198
-0.01821524825
-0.0001016230796
-0.01483624581
-0.0122577105
-0.04559643556
0.003693401933
-0.03551376399
-0.003068426144
-0.0358871446
-0.036277795
-0.01630381773
-0.0055745175
0.004222656505
-0.06991129324
-0.04574708597
-0.05106990501
-11.39170881
-8.557384483
-6.416889993
-3.431779252
-5.953608056
-5.507074985
-1.805672702
-0.8283408134
-4.268172278
-12.41772825
-6.840155413
-8.996516124
-1.250999061
-9.332969997
-7.861783978
-4.283116054
-0.01175407099
-5.069233688e-05
-6.599972012e-05
-2.867789245e-05
-3.110128081e-05
-2.887205774e-05
-3.081467881e-05
-7.318293306e-06
-4.36933791e-05
-1.323933887e-05
-0.00377663952
-5.615611053e-05
-4.338641611e-05
-3.327137853e-05
-0.0005025219875
-0.006172182475
-0.007907553233
-0.01512430153
-0.0083771305
-0.01399454672
-0.007904287658
-0.02330023825
-0.006053933912
-0.004118311784
-0.01097015789
-0.01011064718
-0.0127456512
-0.01525865136
-0.003109551332
-0.01390210842
-0.01484413809
-4.918280445e-05
-0.01273829404
-0.007999485203
-0.008146090192
-0.02705556454
-0.01484984503
-0.002498600778
-0.03996348855
-0.1229563612
-0.04336572814
-0.02860729603
-0.1288066203
-0.008703076769
-0.02796195256
-0.003143084509
-0.06563689243
-0.06293741474
-0.02481385928
-0.08363829245
-0.07289876019
-0.01849253252
-0.06240543138
-3.174485148
-9.703109327
-1.459779439
-0.09828155907
-7.965234459
-9.453379303
-7.97719307
-0.149083021
-9.633583481
-4.158406994
-3.260471857
-10.71831249
-0.04590027404
-7.884372547
-5.344627586
-0.1895489193
3.234056276e-05
-0.0003237187017
-3.643046997e-05
-1.932704819e-05
-0.0001298763686
-3.649041793e-05
0.00183643574
-6.286667121e-05
-0.0002400775711
0.001051556156
6.695449442e-06
-4.206698347e-05
1.222905373e-05
-6.220055644e-05
-0.02173385563
-0.01704092371
-0.006684252093
-0.01125669023
-0.008743014705
-0.008288437668
-0.008403883333
-0.009408247148
-0.005597625524
-0.01516897185
-0.004755622598
-0.01096949584
-0.02216784871
-0.009058016415
-0.1323045315
-0.05765108794
-0.01281148905
-0.02474891712
-0.02190215971
-0.01565207835
-0.02760801477
-0.008926383494
0.00152406167
-0.1565443402
-7.124201204
-6.239559085
-7.027889961
-6.3137484
-0.3042170805
-10.98609983
-0.3914999345
-3.482239698
-7.809738148
-4.434968752
-1.020445737
-10.77749489
-13.71147085
-2.922680223e-06
0.002210421423
-3.655853316e-05
-5.009596796e-05
-1.430346347e-05
-4.707990188e-05
-1.220510611e-05
-7.30259033e-06
-1.268242813e-05
-5.44869174e-06
-3.12236147e-05
-3.935786944e-05
-0.0001115990971
-2.679322474e-05
-0.0001349231056
-0.005777139536
-0.01436884164
-0.01069067549
-0.009129341725
-0.01098994991
-0.006194594479
-0.01736938
-0.00356368869
-0.006680640274
-0.006554177995
-0.01113831466
-0.009891473876
-0.005644985125
-0.01435922724
-0.1317372262
-0.01950745734
-0.01812456484
-0.003513897469
-0.01454645796
-0.02803898083
-0.2048841777
-0.1193165978
-0.0344350563
-0.01037248057
-0.9649732297
-0.01298373873
-0.006525432602
-0.04880694948
-4.838658913
-0.1634846178
-8.760995772
-2.853098446
-5.506909502
-7.009325948
-3.590658169
-2.392074923
-8.306542992
-0.163455157
-6.060119163
-6.424976281
-11.03000128
-5.329943853
-3.719722536
-6.864936052
-13.23388568
-9.708201015
-10.83644589
-12.57285114
-4.634608358
-8.519849131
-11.78112664
-3.831475504
3.039914377e-05
8.104851419e-05
-3.05347909e-05
-0.004952042157
2.622709941e-05
-2.530295554e-05
-4.021481636e-05
-7.261331405e-06
7.635404303e-06
-6.508422455e-05
4.164820131e-05
1.705446087e-05
-5.311084182e-05
-8.49304841e-05
-0.007606356013
-8.511912528e-05
-0.0001387412816
-1.858688913e-06
-1.559303273e-05
-1.13937612e-05
-4.312193762e-05
-0.006944252956
-0.005240884328
-0.005903584217
-0.002670793852
-0.003511616755
-0.01538210597
-0.02072238087
-0.009995845223
-0.01169272977
-0.005156037962
-0.009687608461
-0.02459673501
-0.01091221131
-8.917742843e-05
-0.01200358449
-0.007324045781
-0.01917498833
-0.03987057336
0.006157297147
-0.01511567184
-0.002175739856
-0.04101473177
-2.763501707
-0.05052884045
-0.2112558626
-0.008304870868
0.00200456259
-0.01565868822
-3.255358534
-0.03524638116
-0.06030012669
-0.01227400776
-0.126261921
-0.03819307886
-3.420873493
-11.76092265
-3.667388355
-7.178629057
-1.822533655
-3.796570708
-10.34644746
-0.8009999848
-0.1492224895
-9.146793642
-7.756762138
-13.52263364
-13.51793083
-2.687130347
-6.220634887
-0.09022016182
-13.61552321
-7.108098577
-3.23955001
-4.594909222e-05
-5.776069084e-05
-4.655433348e-05
-0.005339660479
-2.714168341e-05
-9.050280438e-05
-2.610300548e-05
-1.946041218e-05
-6.112423938e-05
-5.214164518e-05
-3.090948363e-05
-0.006223044414
-0.02509047764
-0.003486527683
-0.005821966465
-0.005057939848
-0.02380838834
-0.01577927096
-6.688905859e-05
-0.01752347909
-0.008036846721
-0.01093947514
-0.007043848064
-0.02005663235
0.0003004288052
-0.164833637
-0.05844946132
-0.01067070962
-0.01020995171
-0.008158526166
-0.8514107183
-0.04313561427
-0.04475518257
-0.9386898623
-0.007051556897
-0.01312371135
0.007872286162
-0.07431109624
-0.2027600623
-0.219022556
-9.093274549
-12.54329064
-5.31107564
-4.985220492
-3.560139012
-4.908008142
-1.532009544
-13.16177071
-8.072755164
-4.981690383
-0.01264798446
-6.647051708
-2.877835483e-05
-4.725444513e-05
-1.732022439e-05
-2.265783879e-05
-2.897097447e-05
-1.501027032e-05
-0.001873618805
0.002159944111
-5.089581246e-05
-2.146560613e-05
-0.0003071708918
-5.186964433e-05
-9.957786204e-06
-0.003802286678
-0.01201261935
-0.005642403023
-0.009833523647
-0.006534254445
-0.01856563301
-0.007483263959
-0.006738518231
-0.01666889023
-0.004017880468
-0.01486132655
-0.01330527332
-8.979925511e-05
-0.03241198418
-0.02026302997
-0.02735116231
-0.1200714883
-0.0009954379912
-0.5185225678
-0.02089192999
-0.02124781647
0.005903061111
-0.04305932361
-0.03875216816
-0.007232355383
-0.05127177226
-4.694113213
-0.9248888168
-9.114303361
-4.06180929
-4.681132705
-3.323793312
-1.599500838
-1.061964783
-8.346222877
-6.546866627
-3.648070621
-5.040583252
-2.30698807
-7.692233527
-8.188500945
-7.654136406
-7.806382307
-13.76113777
3.424557163
3.801286833
6.666108398
-3.134169064
7.160939401
6.305483564
6.538378489
6.533449857
6.97232589
3.43288018
6.639562351
6.873232322
3.246053305
3.192943436
6.163029204
8.451730898
-1.796586403
3.872488954
4.090838378
-3.415254085
-4.356363179
4.067482382
7.058965509
7.023493742
-5.457461882
-6.92317982
7.292057774
7.915574373
7.564178119
7.174798745
7.257007167
6.88600604
7.892629328
7.356444969
6.709911483
6.467356686
9.739636605
8.973300611
7.662452398
9.342738319
9.296692808
7.42907435
6.757893731
7.726566504
8.083278603
8.765217595
6.827019512
7.826958911
7.808537081
8.812701877
8.314953357
7.449183016
6.896486211
3.88576337
3.874305787
3.397463657
5.994986531
6.716405808
3.651488348
2.614383024
6.736540526
2.8648255
7.760021583
5.637160162
4.036742318
3.497893716
7.097698343
9.243176783
7.45932196
7.258327466
6.918225721
7.579959217
7.113212138
7.451389516
6.061249092
6.532643263
5.758121722
5.995219693
6.427082398
7.605943842
9.397120365
8.134558295
8.132281865
6.9365951
8.237687189
7.81977578
6.723963945
4.137928156
7.394681092
4.155460141
4.155233287
8.472110829
6.59115279
6.168901262
5.221049071
3.83002334
3.478252462
6.391635651
7.251327131
5.753421552
3.013879611
5.954088585
3.027742171
3.012600793
5.204573525
7.711143672
8.059305639
7.100780697
7.0142491
8.015464884
7.25372018
8.096399577
6.152647222
6.525143807
9.044422699
7.429420838
8.938164089
5.942077171
6.446138
9.024634569
8.597715634
6.578048076
4.051382123
3.951533196
-2.402326896
7.710075946
4.205180076
6.916672223
4.798374875
3.408268241
8.394409487
5.461280194
6.413429861
2.847527037
5.898478036
-3.863326189
0.3850104249
3.535588778
3.546955934
3.03056314
4.537421736
-4.761114595
5.309215848
3.156070445
6.102639431
4.271423941
6.982500657
6.236665057
7.086871945
7.676166805
8.506793127
7.987692989
6.911115318
6.784847075
9.435467102
6.903572718
6.424696258
8.590506068
6.444899806
6.38430895
8.478174966
6.850622699
7.942462504
8.262500765
6.172964418
3.978801506
-2.549472709
5.808427404
5.080863424
-1.677368901
2.798177658
6.849875533
4.816205047
4.266307172
7.075229552
4.191808001
-3.311919397
-3.718817874
7.342415285
4.003646656
-4.376664278
8.53135302
-5.124199855
2.734933084
5.847201105
6.36884065
6.407969176
2.676264582
5.39038326
7.382241128
5.780734379
6.26796413
7.383312379
7.785647599
7.227030922
7.231101472
8.267957192
7.724593625
6.917233021
9.174716143
8.828564193
9.59322276
6.916576648
8.44779956
7.456940698
6.283269048
5.026280801
4.527225329
7.354434896
6.58136828
4.416975043
4.084176313
6.547606276
3.949355467
4.435204865
7.760140115
6.575567734
4.497703507
5.223869042
8.572745648
7.739359831
8.47211639
7.921629422
7.9932126
8.07391167
6.498697462
6.88301527
7.606737752
7.713211587
7.465287781
8.401739132
7.436240956
6.582999737
7.797692213
7.666362495
8.09356558
7.795689705
5.874816614
8.847904418
6.711539005
-3.16250926
2.47275666
5.259779814
4.218851733
1.338048059
4.059196928
6.426305025
2.449977876
2.730151519
1.575068026
1.433055505
4.059947726
3.973153065
4.243574226
-4.110450245
3.109190743
5.633692968
3.47565661
6.389073504
7.659941887
2.794488234
5.42863271
6.177698186
7.079767478
3.803837427
5.83841967
3.151210063
-2.605771516
-3.04724072
6.782004487
5.858454803
6.03916315
4.693061709
4.525644739
6.823894795
5.768348004
5.850463427
4.290819084
7.503201361
7.179328182
7.790206044
8.265813807
6.291344662
6.17542764
6.562984368
8.201953878
6.155820792
6.975034214
7.113861082
7.752620726
7.454058753
6.187841576
6.529304797
6.491044259
7.037244419
7.609987088
6.972947608
7.60286171
6.705890114
6.630154939
8.804419718
5.405373118
4.753821562
7.132331296
4.281472957
4.56403592
4.820050103
4.280192624
6.636644663
-2.281199161
5.669476489
3.717478002
6.0127844
2.822057377
5.73596916
8.596171064
7.868088334
5.781432522
5.696462149
7.807536019
8.723998745
8.224310045
8.91349781
8.761560498
8.737509109
8.443060472
7.687242346
6.394038465
6.70905545
6.211387247
7.0806495
6.807378691
7.150972344
8.7004049
-2.049309625
-1.475658642
6.074622546
3.652525911
4.275800978
3.72070964
5.40890005
2.523388369
3.316833457
5.482494814
5.232788103
2.284324289
5.324101585
-2.766215396
8.239156013
6.100097708
-2.402953728
6.792814155
6.448529463
7.12763543
7.68891314
6.511730406
7.002130479
6.832602719
6.197688049
5.900427394
6.503004215
6.166810487
5.578989481
6.126879804
7.439315369
8.064883774
8.874150545
8.408203844
9.019764328
8.474380034
9.097578843
8.829408559
8.972843303
8.307331736
3.781674834
6.843503083
3.929890091
6.515534818
4.018130616
4.144096239
6.832446023
6.746668504
6.797804034
6.889949035
3.801137714
3.599655791
7.203065226
-3.067298033
5.279711019
2.439377684
3.767461616
7.150126521
5.32099949
5.61991349
2.715219231
4.110311679
6.933379305
3.95808908
1.629252595
4.382304807
5.425604979
1.49780665
1.341038529
7.673272772
6.902574855
7.251995252
7.071650959
7.204076199
7.67053652
6.707113974
7.442808617
5.690279629
6.801921259
8.100231052
5.489398376
6.145045285
7.328647607
5.023513332
6.504877679
7.88778138
7.234541943
4.953490334
6.751842976
4.837676263
3.923653618
6.817046304
7.316627312
-0.9518190452
5.279461634
2.611226167
7.612081053
3.114502805
5.35488894
-2.191687262
2.37457938
7.7817737
5.272731693
2.416018395
4.676539892
1.903897486
5.793232398
6.127612922
6.991437658
7.948922411
7.531786217
7.15657091
5.77819174
7.153213684
5.89333661
5.415195423
5.482807311
4.935821101
8.3526014
6.328512444
8.708827217
9.056501408
5.221449813
-3.014359695
-3.746488206
6.990237838
4.141873812
-2.957689725
9.439439939
5.947485566