/*--------------------------------*- C++ -*----------------------------------*\
  =========                 |
  \\      /  F ield         | OpenFOAM: The Open Source CFD Toolbox
   \\    /   O peration     | Website:  https://openfoam.org
    \\  /    A nd           | Version:  7
     \\/     M anipulation  |
\*---------------------------------------------------------------------------*/
FoamFile
{
    version     2.0;
    format      ascii;
    class       scalarField;
    location    "2/lagrangian/coalCloud1";
    object      VID3;
}
// * * * * * * * * * * * * * * * * * * * * * * * * * * * * * * * * * * * * * //


2000
(
-2.378733433e-08
2.624785574e-07
5.005424721e-07
2.548658023e-07
1.250470588e-06
2.046733672e-06
8.037922755e-06
1.158637302e-07
1.722241396e-07
1.916119977e-06
-7.647017447e-06
3.482244864e-06
8.436435335e-06
1.710476984e-07
4.271841501e-07
4.643882427e-06
-0.0009090054924
4.461470119e-05
4.521138155e-05
1.367651237e-06
1.077884577e-06
5.277261214e-06
4.807532945e-06
4.768593546e-05
1.015496246e-06
1.161184999e-06
1.913362279e-07
1.020918613e-08
8.36113368e-07
9.994815111e-07
1.823638938e-07
1.055237833e-06
2.317062724e-06
2.066417968e-06
8.464901956e-06
-1.762394862e-07
1.21721445e-07
2.770981281e-06
3.274215629e-05
8.313109225e-06
-2.082578608e-07
8.310084742e-07
5.705646292e-06
4.69683314e-05
-2.041137163e-07
3.4302847e-06
1.315819505e-06
7.111826854e-07
-1.487904088e-07
4.579601926e-07
-8.230486458e-08
8.838926786e-08
1.231862512e-06
8.654818604e-06
7.154807363e-07
2.526474674e-08
3.674029321e-07
5.497660285e-09
3.7230866e-07
4.831075638e-08
0.0001692319624
0.0001688564367
5.171270425e-07
0.0001577633869
0.00017246838
8.239332865e-08
1.132785981e-06
4.150746644e-06
8.916057906e-08
1.535119556e-05
1.467739416e-06
3.303720003e-07
8.560570197e-06
1.061562258e-05
1.982730517e-09
7.739088465e-06
7.787980751e-05
4.012151099e-06
7.069763213e-06
2.580401242e-06
0.0001926829135
-8.169793371e-07
7.693789764e-05
-0.001011643148
2.807434162e-05
7.706214679e-05
7.521105259e-05
2.709365022e-05
5.18421594e-07
6.923818262e-07
1.737166284e-07
6.268493342e-07
1.349026921e-06
8.804425333e-08
3.066213176e-07
1.502952368e-06
2.28276673e-07
5.528016678e-07
7.728999248e-05
6.636438118e-05
2.908916303e-05
7.479332498e-05
7.088953806e-05
-7.429171463e-08
4.343110723e-07
2.021039349e-07
4.348879509e-07
8.327405138e-07
2.015787216e-06
0.0003796123915
0.0003690158354
1.840578352e-06
0.0003710101254
0.0003675068708
3.907991701e-06
4.596442651e-08
2.182251388e-06
1.894855275e-06
2.187852804e-07
7.815195338e-07
2.955051642e-08
1.572241865e-07
-1.241483776e-07
3.624404229e-07
1.180061366e-06
0.0004122580944
0.000336239399
3.855574413e-05
0.0004874221435
0.0003664310267
5.722494254e-06
7.942388364e-07
3.906383056e-06
1.448422466e-07
1.568069221e-06
-3.741227817e-06
1.202686725e-06
1.664237061e-08
-2.637049394e-07
1.481109338e-06
1.801891788e-07
3.960018088e-07
-1.704363899e-07
3.367278164e-07
-2.316630456e-08
-9.671122799e-08
1.380375593e-07
8.979040733e-08
2.979214877e-08
8.30791412e-07
4.004591065e-07
3.45859428e-07
1.78761997e-06
1.845485868e-06
4.758543294e-07
-2.856362566e-07
5.109912791e-06
-1.040076212e-07
2.872810191e-07
-1.433406515e-07
-2.970885855e-07
1.95084646e-07
2.674332742e-07
-1.466020584e-07
5.182404075e-07
1.394438255e-06
4.12010165e-07
-3.201307278e-07
-3.139554896e-07
4.510067032e-06
-1.088392646e-06
-7.55237397e-07
-3.574040395e-07
-5.333831954e-06
3.141369821e-07
-1.305572283e-07
1.198539827e-06
5.050586776e-07
8.812178168e-07
3.057603621e-06
2.352808343e-05
3.715176025e-06
-3.867194267e-08
4.526606754e-06
1.396537916e-05
1.408391787e-05
9.576747819e-06
1.098911853e-05
7.453623315e-07
1.685436417e-05
2.435194614e-06
2.357927582e-06
5.57415531e-06
1.496750763e-07
5.655405042e-07
2.7650277e-07
6.846757695e-08
-1.584964062e-06
2.149014043e-05
4.879328642e-08
2.321795242e-05
-1.752771791e-06
1.043379293e-06
-0.0001040290341
6.526834014e-07
7.244979552e-07
1.702810545e-06
-5.530887706e-07
3.413481968e-07
1.758945273e-06
3.121130855e-05
3.501001148e-05
-0.0002252960139
1.619563046e-06
8.486991416e-06
2.733067841e-07
4.553981783e-08
-1.780574316e-07
2.219344487e-05
5.483095825e-07
-5.162816123e-07
2.309222439e-05
-3.278073786e-07
3.155929987e-07
3.689675456e-07
4.314561929e-07
-1.848120102e-07
1.328377737e-06
6.398963984e-06
3.245998255e-05
2.596043672e-06
6.306976225e-06
2.755192304e-06
3.34633661e-05
1.055435486e-06
-1.651416154e-07
-1.089556189e-08
7.756485002e-07
2.197971637e-07
9.05965525e-10
-1.409251025e-07
-3.96767093e-10
-1.733230778e-07
3.982658155e-08
2.244731959e-07
6.612927492e-07
-2.284006697e-07
1.77468889e-07
1.279875044e-07
-6.847333814e-06
-3.971322378e-07
-1.322662169e-05
-6.993012498e-06
2.069332677e-07
-1.901412001e-08
1.171186902e-08
1.671982092e-06
2.236895233e-06
-1.281859302e-07
1.345136576e-06
7.041515259e-06
3.261844632e-07
4.237432021e-06
4.348699657e-06
-1.046280138e-07
1.4534176e-06
-3.318458432e-09
-1.121119977e-07
9.281831189e-07
1.355165853e-05
5.257358328e-07
-1.74248621e-06
2.198395056e-05
8.391893666e-06
2.304706811e-05
-1.655304442e-05
2.218221085e-05
4.88460458e-06
4.852737193e-06
-0.0004030783273
5.938892137e-06
4.263024723e-06
-6.314815618e-06
8.084922299e-06
-0.0002268320836
1.544657374e-06
2.072684e-06
8.182680379e-06
7.9790443e-06
2.2600125e-06
1.183436434e-05
2.299253936e-05
2.419216823e-05
5.522244899e-06
3.626746477e-06
4.088488575e-05
1.234642017e-06
5.183387801e-06
1.976406153e-06
2.217402154e-06
8.123926007e-06
-4.04270096e-05
-2.765129333e-07
3.352958893e-07
2.603508959e-07
4.990060231e-07
-4.983162481e-07
-5.812265792e-07
2.713403883e-06
-4.422338034e-06
1.33824246e-06
-1.092059748e-06
5.888193816e-07
7.528139029e-06
-1.429885967e-06
1.787544095e-06
7.575725453e-06
8.834604988e-06
8.775022495e-06
-1.108218001e-07
6.710977756e-07
4.290200122e-06
1.821091638e-06
6.641361608e-07
-1.158310131e-06
-9.369069969e-06
3.705648102e-05
4.190297977e-06
2.505548444e-06
-1.696360817e-06
2.209232646e-05
1.717228094e-07
3.549782381e-07
9.729756226e-07
3.425034871e-08
-1.061688306e-07
2.449351822e-06
-1.558867945e-07
1.59738471e-07
5.470979316e-07
2.387805263e-05
-1.537992758e-06
-1.649424198e-05
-0.0009976937855
4.091928508e-05
1.309578172e-05
3.463506277e-07
2.270339868e-07
1.549134093e-06
1.980662182e-06
5.64170554e-07
-1.262791166e-08
3.259927438e-07
9.347646906e-07
-1.336233502e-07
-1.526609944e-05
1.446035294e-05
3.453532527e-05
5.548462126e-05
2.760258852e-05
7.301232376e-06
5.623218137e-07
7.368870027e-07
-2.796328128e-08
1.620548243e-07
2.720202032e-06
1.022628092e-05
7.004605408e-07
5.660377012e-07
5.61431095e-07
4.88278804e-07
-1.970412851e-05
-1.855747728e-08
-3.759010799e-07
-8.449041162e-06
1.252905136e-06
3.087258724e-07
2.688249746e-06
4.878323467e-06
6.666925611e-06
2.381428549e-06
8.114509097e-07
6.225993711e-06
5.135400176e-06
6.478099042e-06
-7.80125769e-06
6.561836718e-07
3.742992581e-06
1.258952781e-05
3.373206736e-07
3.447369735e-07
5.851283377e-07
8.658996417e-07
4.483679604e-07
3.486299319e-07
3.831863749e-06
1.286262791e-07
2.552032458e-07
6.868385261e-07
2.699919199e-06
3.017642893e-07
2.612032975e-07
1.619521819e-06
5.001695912e-07
7.380187052e-07
3.516803235e-06
3.519013157e-07
3.253140389e-07
1.879924552e-06
2.037728027e-06
7.924752354e-07
1.046100643e-06
1.404634852e-07
2.367620398e-07
2.080653137e-07
7.437303419e-07
2.63468398e-07
2.733974e-07
4.397846417e-07
2.41213138e-07
3.807455904e-07
4.601178224e-07
-1.568443009e-08
1.753852632e-07
-8.60693764e-08
3.831745946e-07
-7.441357987e-08
-2.498680226e-07
3.770407347e-06
1.640686894e-06
4.917590569e-07
2.033626917e-06
2.962795925e-07
3.934875904e-08
1.07030992e-06
-1.729069181e-07
-3.316706586e-07
2.160522247e-07
3.62826412e-07
2.347649454e-07
1.759910358e-06
2.666246665e-06
5.201610116e-07
2.285493286e-07
7.828019115e-07
1.152655754e-06
1.047447245e-07
1.595162251e-07
5.283435204e-08
6.424309275e-08
-6.107272618e-06
-5.410025856e-06
-9.028142429e-07
-4.881119237e-08
-6.130650342e-06
-4.932978391e-06
7.792301659e-06
4.653473759e-06
1.47208915e-06
1.402523339e-06
1.689376787e-07
4.632601837e-06
5.968415396e-07
1.2006029e-06
4.577213835e-06
9.693533375e-07
1.026489555e-07
4.4692225e-07
-1.185758626e-07
3.176012454e-07
4.755499268e-06
6.399654061e-07
2.56816273e-06
2.508332348e-07
9.548058144e-07
3.899910094e-07
1.26734646e-05
1.236576065e-05
1.233714636e-05
3.8476392e-06
1.288265776e-05
0.0001073640681
2.120544925e-06
4.080090164e-05
-0.0007023453266
-1.523725986e-06
2.022022763e-06
2.073573094e-07
-5.48416824e-07
1.720536845e-06
1.23562916e-05
3.599053874e-06
1.242825646e-05
1.245261255e-05
0.0001031471216
3.706273197e-05
3.635722506e-05
3.451142323e-05
-7.296492153e-06
3.137327133e-06
-1.065097381e-05
-3.433490524e-05
1.83584588e-06
2.96279276e-05
6.413488927e-05
3.697328718e-05
2.596678286e-05
-2.945570418e-06
4.202009149e-05
1.669190346e-07
-6.770461417e-06
-1.015306346e-06
-8.273786005e-06
-6.13606946e-06
2.441910404e-06
4.369659985e-07
-3.570526354e-05
1.242435711e-05
1.669756945e-05
5.460188983e-05
7.670705599e-06
3.27131648e-05
0.0001454895136
3.278223044e-05
4.060756082e-05
-0.0002192189451
-0.0004343500728
4.163648305e-05
-0.0001137125506
-0.0005727615701
-3.922195957e-05
2.384177334e-05
1.085599686e-05
4.247065861e-05
2.497547177e-05
2.492276251e-05
2.371380507e-05
4.178157022e-05
3.809695083e-05
6.333426255e-07
3.039484051e-05
4.70432545e-05
3.519104823e-05
4.530619939e-05
3.951510256e-05
3.844697739e-05
3.092916084e-05
2.423172264e-05
2.39715358e-05
2.560414168e-05
4.333163139e-05
-7.472628214e-07
-1.278975876e-06
-4.182685989e-06
-1.026939395e-07
3.94573507e-07
-4.969753455e-06
-2.90229782e-06
1.927938726e-08
0.0006346148297
-3.503949788e-06
1.517884293e-06
-3.734046372e-06
-0.0001332796744
0.0001208552723
5.216097655e-07
-9.390408256e-07
7.37526611e-06
-4.892129505e-08
4.335894039e-07
2.929003253e-06
2.239291832e-06
-2.196993493e-06
4.319953852e-06
0.0006578987941
1.678943339e-05
0.0006860887141
5.953599932e-09
4.077663959e-06
-0.02108689746
3.900718977e-05
2.136398663e-05
-0.001527269544
7.195045968e-05
2.280533125e-06
4.024352419e-05
3.74246271e-05
7.331857161e-05
6.757392505e-07
3.342472196e-07
2.701114469e-07
4.974390944e-07
6.698261482e-07
7.844535649e-05
6.247746253e-07
7.113375974e-07
1.121807175e-07
7.83019215e-07
7.117261366e-07
6.007973721e-07
5.345013769e-07
8.144149764e-07
6.762688623e-07
7.096781786e-05
1.359986995e-06
3.893190142e-05
6.305125064e-05
7.476271458e-05
2.652158384e-06
2.05707908e-06
3.906946827e-05
3.326327373e-07
-6.11734539e-09
3.931647857e-07
4.630862025e-07
4.806899429e-07
1.993550766e-07
1.80854045e-07
1.020885321e-07
7.052401618e-05
6.972866137e-05
-1.825402804e-06
3.821075742e-07
1.749142251e-07
1.549047725e-07
6.931182241e-05
2.82621852e-06
-9.464814716e-06
-7.342301215e-06
-5.090874303e-06
9.425536898e-08
4.380718402e-07
3.226455995e-07
-4.791726896e-06
5.534099466e-07
1.822102933e-07
2.192096682e-06
-1.730026122e-06
2.086508165e-07
4.030050853e-07
-5.493553121e-06
-3.568365698e-07
1.703831186e-05
3.088896672e-07
-3.627768187e-06
9.93758612e-07
2.084786219e-05
1.577809222e-05
-5.028635071e-06
3.254440927e-05
1.77452318e-07
1.170607203e-05
9.118308387e-06
7.677397038e-06
-5.870250859e-07
1.385403974e-05
5.513291495e-06
-1.40367681e-06
1.48132911e-05
8.187719838e-06
0.0004868876404
5.410141469e-05
-2.394918005e-08
-1.319490987e-06
-1.340560638e-06
-1.276356313e-06
1.635029999e-07
4.208453975e-06
-9.060850747e-07
-1.227266575e-06
-1.141676399e-06
5.142706364e-07
-2.28841969e-08
-2.01560284e-08
2.842438194e-07
3.422450607e-05
3.385297469e-07
7.051590498e-05
3.308235219e-05
2.622520345e-05
-4.244545047e-05
-1.079647195e-06
1.72389562e-06
-3.218856366e-08
1.025416695e-07
2.735916168e-07
-7.863283013e-08
-1.494999629e-07
1.93975272e-08
3.429787922e-07
3.218649209e-05
5.186168052e-06
2.516773293e-05
6.663558722e-05
7.687525833e-07
1.375382178e-06
1.7427085e-07
3.021320547e-06
3.361213681e-07
9.150217267e-07
3.893126139e-06
9.400788694e-08
5.483191238e-07
-2.475911891e-07
8.77174252e-07
-2.646280373e-06
1.315310968e-06
2.203469205e-05
4.456291804e-05
5.800171927e-06
1.663532293e-06
2.117844066e-06
9.553394987e-08
9.835855425e-07
2.277870874e-06
2.056345338e-07
8.544841034e-07
3.017875553e-06
8.289268702e-06
0.001330524437
6.635251089e-05
6.942078001e-05
0.0001941757958
4.924678545e-06
3.051380315e-06
1.056611156e-06
4.906794344e-06
4.595767253e-06
-5.018652582e-07
4.345791748e-07
8.794332716e-06
-2.867585297e-05
1.409192232e-07
8.033157377e-06
8.304497548e-06
3.850535628e-07
6.113485409e-05
0.0001891881753
0.0001856409135
3.933533419e-06
4.82604143e-06
3.408102028e-06
4.784025156e-06
5.051016954e-06
4.092933031e-06
3.501752585e-07
9.836326011e-06
9.64966215e-06
8.200768704e-06
8.275408331e-06
4.81491198e-07
-6.870841964e-06
1.308910825e-06
-2.044784869e-06
6.871029253e-07
1.942326302e-06
4.31109875e-06
2.357107594e-06
0.000371433398
0.0003836213468
2.094449244e-06
0.0003805846152
2.95119256e-06
-1.659864091e-06
3.015470646e-06
3.211661731e-07
3.060582502e-06
-2.113768467e-05
1.075611293e-05
0.0004566605727
2.183407495e-06
0.0003242460409
0.0003604926754
5.907457193e-07
7.853889771e-06
1.734654078e-05
-1.421114537e-05
-5.489009313e-05
1.553074262e-05
1.237406773e-05
-1.910536985e-05
-2.473314742e-08
1.725809196e-05
6.058589637e-06
5.128441712e-07
1.126767435e-05
0.006293675866
-1.857033934e-06
0.006245581722
-4.528080711e-06
3.241085083e-06
0.005637058849
0.00394752914
0.001538957557
0.004421856949
0.007357960456
0.005516099408
0.002700982399
0.002459251315
0.007252350496
0.002137035765
0.004230114121
0.004983970579
0.003174875931
0.001886637439
0.01175766879
0.004261266259
0.005168227004
0.001322292051
1.640558126
1.512058043
2.46551002
2.479135868
2.781799072
1.414079381
1.251891166
1.383107476
1.460227915
1.405659352
1.526265061
1.37212446
1.209413393
-0.03899070523
1.235188568
1.342021267
1.209875708
1.377331308
2.706462598
4.511671729
2.742509254
10.68257442
5.373923214
7.79854307
1.314763989
6.090739072
3.957250789
1.986560683
5.732247058
4.114612131
10.22775215
4.849760481
1.899298032
3.901693353
-0.129274347
0.0004983124075
0.0001426186088
-9.427128743e-05
2.242027208e-06
2.20431598e-05
5.289815327e-06
2.742175353e-05
-2.005023828e-05
-0.001053164576
0.008046749362
0.001621774722
0.00302871568
0.002148608139
0.001360401605
0.007477701806
0.003290577582
0.005982914961
0.007783853947
-0.0002998847117
0.001765877149
0.00292211585
0.004341710735
0.008257361798
0.005513466631
0.004720047207
0.004108887506
0.01462832915
1.391799912
1.28985337
1.093226176
1.364205892
1.894185645
1.79923626
0.9858662266
1.850580551
1.777699395
1.077031363
1.65489297
1.593331143
2.49803949
3.499967789
5.398791964
8.394680143
6.997423061
2.861640886
4.54334674
7.692432772
6.945972842
6.784484046
2.440644844
6.449215998
3.504972386
0.001542825151
0.001491947509
-2.211023332e-05
0.00542242738
0.002796400029
0.005180575002
0.00274340027
0.004517546649
0.0005094780497
0.0004904477814
0.001488821614
0.005659878112
0.007497297106
0.007287957641
0.01187050667
0.002737572435
0.004773332035
0.002787697549
-0.05766690396
0.007881056334
0.0005225098952
0.008192328771
0.001412553214
0.01059159572
0.001487263278
0.009585820365
1.685330555
1.627121172
2.457251737
1.68055174
1.679528433
-0.06909602263
1.17583802
1.194603083
0.818244268
1.217892723
3.676690492
8.303835426
8.216832293
6.877515503
5.753030865
0.718769632
3.30166935
2.133078712
5.598445102
3.07256308
0.871478622
2.214074188
5.365496294
2.829672085
0.2606269152
-1.642101744
2.609770208
1.287275893
2.051756664
-1.509523898
8.587220246
1.446570287
4.945169763
-3.581990614
2.662165711
8.510896408e-06
9.318469987e-06
1.155929196e-05
1.896444895e-05
0.002148369274
1.166096229e-05
7.510491132e-07
0.002566463612
0.001113362868
2.413780103e-05
0.00108848149
-5.304623389e-06
1.23388286e-05
0.000531488153
-1.299310664e-05
1.85719137e-05
1.002638218e-05
-0.001334559725
0.006069527509
0.003795169097
0.003705064793
0.00329618914
0.007956913867
0.00450950425
2.356606805e-05
0.002483576762
0.003166618363
0.004150721511
0.006035810486
0.007107767434
0.006716208232
0.002011336392
0.00264461533
0.005554578505
0.005698501645
0.002971855607
0.006504258387
0.00412686456
1.615940086
1.447581694
1.18856207
1.182153185
1.540956666
1.62312118
1.433481177
1.195678437
0.9888897428
1.141637548
3.125593033
1.69904292
1.691087639
1.778517625
1.725753619
1.355057497
1.503331524
1.432130767
1.659998007
1.37746071
1.425185288
4.442308802
8.906617833
6.118287379
6.021879744
6.042192518
2.764964947
3.554084825
7.63815156
8.167227965
5.810668689
1.330354563
1.507636646
7.646188797
6.988201056
7.519847658
7.097859012
5.971486979
9.016404817
1.646345724e-05
-0.006897235192
-1.185057355e-05
0.001939900426
0.0005141057553
1.403545191e-05
-0.008657331042
0.003084329515
0.001257502581
0.003950612439
0.001427626123
0.0009622684023
-0.003240082854
0.00431453201
0.004657126357
0.006133045411
0.009413258269
0.003976799181
0.01017868711
0.001804480247
0.004571139305
0.006539250213
0.003452051058
0.006307163234
0.007098100011
1.687377421
1.020024029
1.063106399
1.210775626
1.032982298
1.061281718
0.9573753755
1.515218803
1.224337438
1.154643759
1.673577698
7.19065194
5.390496144
6.503758193
6.841634686
2.862024744
7.2392977
4.084722539
5.134038622
1.017514545
4.175224248
1.026329622
1.539322968
1.439756314
4.628892087
3.986664942e-06
3.972121766e-06
1.137960656e-05
1.121699358e-05
0.00291221478
2.355779871e-05
2.285558953e-05
0.003113570128
2.674746587e-05
0.002482439506
0.003536527717
9.329445434e-05
0.0001116543139
1.530159409e-05
-6.493472216e-05
0.008786762797
0.002067540533
0.002054118007
0.008657152868
0.005454675049
0.005602089998
0.006863390598
0.0001266537981
0.006371799639
0.005409544403
1.607268342
1.49462681
0.9292030836
1.556255069
1.546148935
0.9138418305
1.613144829
1.518492613
1.574931266
1.135139742
1.271431434
1.688667719
8.405445409
7.233919562
5.647344977
3.743409314
5.282319564
5.192516123
2.198452947
2.139323927
4.331278348
8.954899917
5.646614504
6.93980632
2.006436522
7.527309218
-1.566689075
-0.7049621666
0.004548388285
1.89910894e-05
0.0003904817534
1.472478347e-05
1.179192546e-05
2.413574434e-06
5.825112503e-06
3.347582365e-06
1.091178566e-06
2.404490556e-06
0.002068967819
-4.190115159e-06
3.649263998e-06
-1.091515032e-05
0.005107344022
0.003536057806
0.003132326432
0.006851483871
-0.0003724445928
0.005422674012
0.003490264836
0.007970046859
0.002322446472
0.002349628599
0.004105077175
0.003875453855
0.006939562006
0.006534741527
0.001652834183
0.0113719999
0.01170965364
-1.152474925e-05
0.005307101364
-0.1530233405
1.493944331
2.09109197
1.433881541
2.050525004
2.069921563
1.184454704
1.2897673
1.443126877
1.57135584
1.452149524
2.19991524
2.136413133
1.933651881
1.933594279
1.056914583
1.889653954
1.905514434
1.881914613
1.118392065
3.323069499
8.297038748
2.15505609
1.541322899
1.907207936
7.565490912
7.273733765
1.117012244
7.55673426
4.015878693
3.501865987
8.549778856
2.230941588
6.899533558
5.220273057
2.000743809
0.005600664069
0.005403459258
-4.185196048e-05
-9.392823007e-05
-0.0001279182987
-5.02621148e-05
-0.08118186154
0.003750881917
-0.0003195794971
-0.01640883285
0.0007307443564
0.0006919079474
0.0006791846082
0.004473102144
-0.09943396881
0.007041187164
0.007697629727
0.01022914815
0.003740684663
0.002837095299
0.006094176048
0.002922940332
0.001545927509
0.01935490473
0.002055257641
0.004124720131
0.009631546303
0.003550021258
2.227076321
1.264576248
2.20653571
2.213999023
1.263478588
1.244061216
1.266060436
2.326568633
1.559861685
1.360600074
2.243390924
6.182096362
6.897910853
2.340724278
1.435179914
8.423384224
1.495691814
3.600016411
2.029522953
4.676701205
1.948205664
9.457525505
10.55961636
-7.491850798e-05
-0.07192869192
7.731029573e-06
-4.92770586e-05
1.663805329e-06
1.185954406e-05
4.15117361e-06
-1.631888983e-06
6.027662237e-06
0.001234369901
0.001143970844
0.0001499442815
0.001264661323
0.001216379422
-0.0001060320413
0.002526544419
0.006288448177
0.005198135739
0.004118308736
0.004072955136
0.00236654836
0.006350971526
0.001811924462
0.0015208786
0.002855097463
0.005945161839
0.003476951472
0.002075155433
1.85229899
1.790021787
1.572239097
1.618513741
2.466184057
2.489889678
1.638480928
2.657973872
2.540398506
0.9517913595
1.1394451
1.67596811
-0.002652374342
1.172526345
1.04149687
4.76430041
2.041732493
6.356090623
2.591558555
6.075417142
5.668815572
3.322671875
2.586989574
6.285959459
1.24209444
5.766530584
1.664210276
4.930428892
-2.370285963
1.164786989
2.785095272
5.264520598
3.37824602
8.201018539
3.749793627
1.458757247
0.0608188483
8.33207213
-0.4691725298
0.006158245708
0.00621810285
2.375342281e-05
0.00802987257
0.006175501179
1.626496544e-05
0.005627022955
0.005635692836
0.00311254565
3.569411261e-05
0.005629328267
0.003048102789
2.353191787e-05
2.203447203e-05
0.003618755482
3.64416013e-05
2.988069942e-05
-8.899744072e-05
4.210774352e-07
4.206008247e-06
1.903654327e-05
0.008491072746
0.002858918396
0.003572990349
0.00149690492
0.001741565916
0.008544164091
0.01263438789
0.006770737099
0.009860754212
0.003694290169
0.006840666832
0.009859812308
0.005085654422
-0.0002409144992
0.005455914352
0.003472798152
1.147379308
1.17594459
1.661939119
1.7455114
1.129905835
1.185161018
3.600454341
1.204390049
2.304908586
2.110507049
1.815553799
1.852392836
3.591725679
1.145380943
2.332568798
1.303243165
2.402556385
2.315170226
-0.9341449706
8.832433093
3.405887328
5.545029023
2.478181875
4.172406517
7.205874898
1.597258177
2.008093106
8.243679889
7.214826257
10.41437233
11.1369289
3.112779936
6.304980183
1.216296729
10.67937458
6.096815385
3.386727764
1.340524642e-05
2.05452493e-05
1.40205153e-05
0.002134501674
0.0005234517616
4.155990039e-05
-0.0001733635107
7.324609744e-06
-0.0001463600104
1.716592006e-05
4.403539451e-06
0.00232545813
0.009375086442
0.002420511966
0.002353898983
0.003482118557
0.01353830019
0.007080252363
-4.596728297e-05
0.008061946147
0.004024240843
0.006603458538
0.003073696134
0.008013205624
1.817568501
1.507779663
1.295583435
1.861032249
1.752505053
1.745679589
2.044750464
1.341513631
1.58477043
2.070514744
2.224860715
1.658087721
1.616943664
1.754028557
1.631601145
1.952582324
7.412696388
9.083543264
5.387004029
5.078622856
3.890471187
5.318275312
1.733822171
10.0637157
7.370085333
4.904216623
1.73277769
1.902379498
1.31257151e-05
1.422869752e-05
9.4292877e-06
6.017301629e-06
-0.0002379019778
-1.3248469e-05
0.001193812906
-0.09406611904
1.218606816e-05
8.998599599e-06
1.706839485e-06
1.777298169e-05
3.139698079e-06
0.001628962727
0.005339573076
0.003330771238
0.00388194489
0.003999487213
0.006491591129
0.002800290089
0.002059177177
0.006442315509
0.001709508461
0.005183023642
0.005168866094
-5.891976566e-05
0.7854580165
2.287723795
0.7426864361
1.556207317
1.469424707
1.090088371
1.521080806
0.8282162078
1.575844475
0.9512644194
1.676754758
1.553772166
0.9068748275
4.366630682
2.150575547
8.532129611
4.161558656
3.959889911
3.102992989
2.653899523
2.253180947
7.01838894
3.997501468
3.99553774
4.702634843
-1.62442703
-0.7422490752
0.8124692679
3.07063954
-3.683098817
8.849459135
6.148793497
5.148916748
2.484413315
3.254672619
2.605907239
2.392232954
2.574797424
2.563765758
2.788988189
5.643415774
2.668444663
2.525302801
5.917680969
5.65211458
2.279552184
2.858113368
2.957482918
6.079333466
5.962640997
3.722009921
8.623645551
5.345693091
2.437477923
2.611882861
4.793334492
9.763113169
2.218586405
2.278306291
2.275046
2.144978086
2.046147727
2.517136278
2.291295888
2.561425347
1.986663633
2.299044129
2.45894023
2.700523308
2.187108305
2.340891301
2.428027265
2.181825141
2.519391795
2.123219937
2.417558365
2.101463964
2.281823562
2.122660591
2.10275032
2.090373867
2.379520162
1.97532576
2.454220727
5.498084023
5.53080576
5.631864917
1.74134562
2.475895279
5.852105088
5.265454084
1.891629829
5.390044988
2.292055923
1.965263124
5.441679822
5.922924737
2.198739167
2.114930243
2.180587057
2.031496077
2.078881222
1.63085931
2.017155335
1.87925025
1.946804148
1.682754953
1.971128997
2.031443399
1.591426916
1.823997428
1.881154747
1.840433136
1.859306927
2.296249902
1.862324313
1.981830066
2.360206869
5.57787259
2.163940972
5.467162439
4.987160532
1.932255534
2.224315558
2.158167846
4.938557827
5.414467058
5.029403233
2.14882132
1.605256084
2.271902676
5.168065379
5.774682758
5.543504673
5.545691595
5.480447398
1.689709358
1.774627801
2.002694204
2.000747221
1.872568522
1.84142504
1.766093241
2.219541871
1.866582599
2.556382052
2.292099611
2.045248195
2.260347507
1.857655093
2.612220885
1.765087305
2.356895222
5.856074748
5.866283517
2.778869514
2.653845746
5.487307452
2.529704496
6.09511425
5.487449919
2.596380063
5.656678651
2.329495397
5.736927901
2.384606265
3.398861198
0.3175789221
5.775238449
5.477564325
5.778407573
5.066630967
5.053325426
5.380571028
5.714611556
2.389665922
5.736717522
2.501430082
2.352254449
2.51297021
2.331366895
2.216651324
2.537883923
2.057958997
2.361503351
2.276371688
2.336542398
1.968935167
2.511094594
1.960088021
2.06821411
2.561021565
2.028235629
2.166269664
2.525624192
2.354963492
5.495481941
3.693032606
2.088129994
1.949372425
1.986828485
5.450351868
2.524388081
5.241226203
5.2940543
2.466705767
5.803633485
2.616710832
5.175067218
2.322725003
6.08969064
3.951149213
2.680390133
7.422564493
5.922080456
5.60171662
5.357356296
2.064132482
5.721498846
1.619870244
2.010453898
1.462445275
1.923880652
1.755602153
2.213032864
1.883322142
2.573444741
1.985261434
1.747598205
1.605772983
2.650283577
2.691310127
2.399322868
1.451627169
1.779791432
2.450075742
1.815577668
5.323035063
5.261402394
2.163742811
2.297572425
5.553551939
5.831562528
2.346723377
5.558633257
5.433282657
1.808757929
2.448494703
5.396530756
1.732528362
2.260210879
2.302691052
1.826217593
1.616590806
2.387747165
1.952919465
1.840253114
2.367635016
1.96669892
1.842161483
1.677491229
2.369433899
2.212817028
1.820918651
2.186687293
1.744676163
1.625520315
2.157654259
1.473785715
1.499119034
2.609692498
4.804228122
5.165991439
2.288695761
2.039190238
5.879745072
2.169990652
2.599814746
5.723188911
5.649613886
5.468252343
5.397600235
2.158363906
6.047080999
6.468361158
3.50981653
4.957150048
2.403776877
5.233846049
2.478948153
2.659947458
5.316057819
2.380042629
2.420187676
2.367395775
6.323714408
2.538732649
6.320396504
3.016183558
4.969512227
2.417743514
2.652625109
2.567196328
1.681676335
1.679286836
2.589520441
2.002724619
2.007084396
2.002127283
2.221118042
2.469431142
2.766023035
2.344021624
2.045495205
2.026747774
2.436382286
2.294215618
2.030831529
2.047880912
2.388262506
2.330254046
2.212724774
2.484578212
2.233018207
2.220992884
2.618073056
2.335009234
2.372637027
2.11585749
2.178330518
2.192477864
2.310913185
2.536486308
2.523338022
2.594710116
3.243736842
6.264819103
5.891262108
6.332442201
4.181259407
2.720923758
2.244685259
6.387339916
2.228288404
5.694736929
2.329747607
2.359131079
2.15164613
2.142284203
2.140106338
2.705634289
2.269810075
2.339235594
2.515382168
2.299955725
2.406964032
2.365357309
2.703279589
1.871172601
1.938279101
1.816387807
2.598438393
1.866867359
1.482574318
2.023634978
2.397424809
1.831690136
2.077225271
5.074132135
5.543486913
5.441849689
2.399779037
5.900589759
5.245394337
2.384217616
2.556527922
6.06592264
5.849779669
2.469763464
2.619384607
1.972347771
3.894265813
2.078529583
2.291728421
1.364159846
2.063312739
2.063243583
1.703056978
1.628567722
1.904043975
1.944282657
2.035787723
1.986201866
2.312962229
1.825884928
2.288592059
1.856134098
2.691112401
2.637513934
2.003127195
2.698971065
2.36540603
2.250715038
1.987909981
2.468277509
5.902872486
2.507713373
5.418060971
2.426908603
5.645373538
5.573158292
2.511330283
2.444757486
2.457733408
2.425068984
5.596465116
5.453076983
2.607125055
3.055214183
2.320083607
5.534294918
5.697076213
2.652839245
2.40171616
2.607146474
5.506911093
5.844264977
2.790581888
6.531778694
5.598703158
2.266957926
2.580563514
5.778645097
5.522570562
2.18488042
2.416253855
2.429196956
2.457846655
2.247167569
2.056053823
2.467880784
2.56868714
1.939444899
2.402074862
2.269946467
2.259873422
2.259069604
2.727507246
1.808468446
2.234963265
2.323800121
2.677353257
1.854737295
2.392175107
5.178212895
5.345102669
2.337147879
2.112744362
2.869437562
2.012002578
5.253964576
2.188047305
4.755316818
2.097006397
3.001245347
5.630689142
1.997036633
2.126461887
5.744359054
5.480983257
5.533613974
2.164201743
5.107476024
2.340516033
1.790618137
1.93004376
1.565036585
1.727212269
1.374702541
1.728216977
1.965181725
1.947655727
1.841466554
2.095085639
1.694331236
2.585000226
2.448772968
6.306600121
1.994453057
4.465023065
2.546207885
5.803220592
2.279558115
2.137979206
4.044639243
5.082011258
3.179875128
5.265475537
1.530207445
2.54316893
6.144730158
10.36883853
5.22529315
2.36094046
1.837571971
2.169667721
1.952276195
2.101509237
2.198051161
2.43963741
2.49202355
2.093656251
2.173327445
2.543461322
2.531618179
2.194746116
1.459445396
2.203415375
2.551238277
2.359079061
1.363220521
2.394643182
2.201549025
5.476557178
)


// ************************************************************************* //
