/*--------------------------------*- C++ -*----------------------------------*\
  =========                 |
  \\      /  F ield         | OpenFOAM: The Open Source CFD Toolbox
   \\    /   O peration     | Website:  https://openfoam.org
    \\  /    A nd           | Version:  7
     \\/     M anipulation  |
\*---------------------------------------------------------------------------*/
FoamFile
{
    version     2.0;
    format      ascii;
    class       scalarField;
    location    "2/lagrangian/coalCloud1";
    object      VID4;
}
// * * * * * * * * * * * * * * * * * * * * * * * * * * * * * * * * * * * * * //


2000
(
7.356134033e-10
-2.178655212e-10
1.832011496e-09
1.506204676e-09
8.942500835e-10
5.585540552e-10
-3.834821537e-09
7.815217696e-09
-2.406722995e-10
6.059992667e-08
3.879084844e-09
1.245343502e-07
-3.704449057e-09
1.013043679e-08
2.47178714e-09
6.105734752e-08
-2.797577526e-07
5.118612944e-08
-2.972251752e-08
2.722620457e-09
4.403523492e-10
1.962143072e-08
1.460184028e-08
-2.824271555e-08
4.934412477e-09
-6.5981825e-10
7.819607698e-11
-9.254038287e-10
2.643790053e-10
7.609917062e-10
6.694283585e-09
8.870704713e-10
-2.519564267e-09
1.499029942e-09
-1.660191021e-08
4.29002933e-09
-4.970676424e-10
5.360925522e-08
-2.613385747e-08
7.997231798e-09
9.111734117e-11
-3.604350243e-10
2.23862074e-07
-4.069120269e-08
-5.585956093e-10
5.498053988e-09
2.534298808e-09
1.736275165e-10
-2.962778661e-10
5.898048991e-09
4.286340027e-09
2.000485919e-09
3.984032899e-09
-1.277992374e-08
3.804679742e-09
-7.452495332e-10
6.516077069e-08
3.658676313e-08
4.59814353e-09
1.061070143e-09
-2.396638839e-07
-1.075537378e-07
2.762976547e-08
-1.905748443e-07
-2.578283132e-07
2.074067284e-07
5.669761146e-09
3.141632443e-07
4.543973088e-09
3.353860532e-07
2.182553954e-07
2.803240026e-08
1.060448453e-06
1.388355349e-06
1.082816495e-08
2.4506195e-06
6.760368523e-08
4.541301703e-07
4.811333664e-07
1.246297079e-08
2.158458433e-06
1.012818615e-08
-2.086742954e-08
-4.24901519e-07
5.011661728e-09
-8.731649969e-08
1.153068216e-07
-6.613243754e-09
6.226298938e-08
2.002356443e-08
4.124743914e-08
4.07561423e-09
8.381911431e-10
-3.912196168e-10
-4.956532993e-10
6.401983632e-10
-9.97389484e-11
-6.857034831e-10
8.014582395e-08
2.412992832e-07
6.017447968e-08
-4.401304906e-08
1.298100264e-07
2.462588363e-08
1.943362372e-08
3.262169396e-10
3.337895048e-10
1.804203871e-10
4.022053026e-10
-4.700680931e-07
-6.931341546e-07
5.444586741e-07
-3.20498431e-07
-4.139061736e-07
7.76376582e-08
2.377591768e-07
2.791828281e-07
1.996798638e-07
2.18493475e-09
3.53161774e-09
5.49731867e-10
-4.164166962e-10
1.758215047e-10
-5.945987666e-10
1.881685521e-09
9.522466651e-06
-1.182237966e-08
8.147428617e-06
7.090293819e-06
5.046889899e-07
2.517427595e-07
1.937282686e-07
2.215871046e-08
1.002626341e-08
1.350194744e-07
-3.931262674e-10
1.080743365e-07
-2.81201951e-11
-1.091858795e-09
1.450022672e-09
3.295647267e-11
-1.390602234e-09
-1.414139463e-10
5.730830421e-10
-3.747042364e-11
2.39319654e-09
-3.309537725e-10
-4.685465526e-11
-2.813416678e-10
2.452780248e-10
-8.752096003e-11
-4.176992062e-10
9.867318041e-10
7.646819041e-10
6.814074461e-09
-3.495953464e-10
3.50304964e-09
5.759612137e-10
1.130491901e-10
-5.472403369e-11
1.231962963e-09
-5.07123122e-11
-5.979398403e-10
-1.050026214e-09
-2.066278855e-10
4.76749985e-10
1.012926141e-09
3.057285678e-09
1.131693397e-09
6.7693823e-07
1.712097245e-09
-3.840008187e-10
3.755457887e-09
1.377542272e-09
2.434125965e-09
1.897338728e-09
1.48690194e-08
-9.920972687e-11
9.540632334e-11
6.808851206e-07
3.438299489e-06
1.096091673e-06
1.603133076e-09
4.134604245e-07
2.084379232e-06
3.197492171e-06
1.056012495e-06
1.698856798e-06
1.997394904e-09
8.395140748e-07
3.294388623e-07
1.319095102e-07
6.398635504e-07
2.789222632e-09
-9.074873138e-11
1.168454895e-10
3.72937556e-10
4.064564838e-08
-1.288036404e-08
2.665591262e-10
-2.304634148e-08
3.932105069e-09
1.79776272e-08
-4.870583123e-08
1.350434643e-10
3.164175454e-09
1.45244269e-08
1.787496525e-08
1.657849494e-08
-4.422322044e-09
-1.847337698e-08
2.500834869e-09
-6.435655096e-08
3.053255412e-08
4.484154182e-08
2.845349753e-10
-6.430353086e-11
7.411819611e-09
-2.149618575e-08
1.202220107e-10
9.237094305e-10
-8.252879867e-09
3.509808829e-10
-2.121640154e-09
1.58402564e-08
3.803727891e-09
2.061251273e-09
2.401925682e-08
-1.689366732e-08
-7.726237846e-08
-6.567979149e-09
4.41919534e-08
2.244865099e-07
2.620613521e-08
7.725627527e-10
1.395793391e-10
2.60652826e-11
6.231535878e-10
1.666840254e-08
2.190082624e-09
8.313267643e-10
2.306137922e-10
3.26980203e-09
5.890534716e-11
1.244056186e-09
1.925986734e-08
-5.401651202e-10
3.56137923e-09
1.51220213e-08
-7.817878178e-09
1.463262285e-09
-1.208608391e-08
5.323534143e-09
2.04165791e-09
6.893398097e-09
1.932125411e-08
5.048367985e-09
2.462727638e-07
1.286549546e-08
1.635645828e-07
4.061413252e-07
1.256028639e-08
4.078598781e-07
4.014777211e-07
2.133517603e-08
8.153288113e-08
1.866349551e-08
7.504301267e-11
8.570926592e-09
3.854427221e-07
9.046135076e-09
3.22450571e-07
1.579994409e-08
1.729131259e-08
-1.755547012e-08
3.584949728e-08
1.64014148e-08
2.573393594e-08
5.007567876e-08
-2.726018296e-07
4.692547967e-08
1.479103295e-08
7.447338734e-09
-1.646481252e-09
-9.242932749e-08
4.414003032e-08
-2.67885319e-11
7.853351201e-08
-8.202279047e-09
-2.085059914e-09
-3.273660385e-09
-3.240669004e-08
-7.203437125e-09
-1.056737501e-12
2.896762948e-08
1.750882979e-08
6.057966247e-08
-1.339315412e-08
3.309548215e-09
4.094679576e-09
-4.602694957e-09
-7.762184297e-09
4.107066291e-08
4.408291011e-09
3.021725247e-09
1.707204896e-08
3.12317755e-08
3.478939391e-09
3.479990607e-08
-2.935279997e-09
3.668723927e-09
8.063645515e-10
7.676871439e-09
9.530446053e-07
8.238514147e-09
3.414774888e-07
1.380765078e-09
9.024332896e-07
1.228861036e-06
3.136311295e-09
7.228387847e-09
5.708706479e-07
1.611759682e-06
2.387149291e-08
3.564381157e-07
2.154134682e-10
1.655452705e-06
6.16404329e-07
5.110362541e-07
3.920863554e-09
3.117413968e-06
-1.476443471e-10
-9.374521509e-10
-9.63311383e-10
-3.761409304e-10
-2.149368297e-10
2.972009889e-09
5.439415319e-09
3.864308656e-10
8.080275832e-09
-2.590102e-08
3.310541994e-08
1.934380256e-08
-1.893598832e-09
-5.628658849e-08
2.639514632e-08
-2.094393325e-10
-1.647737369e-11
-1.610169239e-10
2.844809247e-10
6.39057818e-11
-5.702159326e-10
-3.390858449e-09
1.765068287e-09
3.710744609e-08
2.232438562e-09
-4.381980757e-08
-8.050830916e-08
-1.040782581e-08
-4.205842378e-08
1.947879386e-08
2.159933308e-09
-2.792758091e-10
-2.5597594e-10
-5.847423149e-10
1.285249786e-09
3.997964984e-08
4.578778563e-09
4.717156663e-09
-1.203300665e-09
1.802198565e-08
-1.350142232e-08
2.393688274e-08
1.394264954e-08
8.397648043e-09
7.475935562e-09
1.840935902e-09
2.046085473e-09
7.745048729e-09
2.346349554e-07
1.663231175e-08
5.526382682e-09
1.110876089e-06
3.794766095e-07
4.184852862e-08
3.673486205e-07
3.824674173e-09
3.148563292e-09
1.084534761e-06
6.768594493e-09
3.208112921e-09
1.115034905e-08
8.593121057e-10
-5.272842058e-10
-8.554256331e-10
3.844805281e-09
1.566939231e-08
2.702152041e-10
-4.027868719e-10
3.33076622e-09
4.802201755e-10
5.660209635e-11
1.139407713e-08
1.360653852e-09
-2.530464737e-10
1.461586905e-09
2.191590496e-09
-7.414101295e-10
2.934393211e-08
-3.246043682e-10
5.68925821e-09
3.42805988e-09
5.959577428e-10
2.304593981e-08
4.862366643e-08
2.125366275e-08
2.216021777e-10
2.285865145e-08
3.207719178e-08
8.19551302e-10
-9.532230476e-10
-4.475157143e-10
3.76662519e-08
2.056323364e-10
-9.328836502e-10
-1.751671203e-09
-1.829623404e-10
-3.036799248e-10
2.399926841e-09
-6.748520706e-10
1.91492902e-09
6.665546001e-09
5.723613998e-09
2.631138506e-08
7.282236789e-10
-9.927244858e-10
-1.212000577e-09
-2.624768661e-10
1.351231101e-08
-4.22855393e-10
7.025553883e-09
6.148310238e-09
1.719872491e-09
1.390611143e-10
4.701568809e-09
1.4459481e-09
1.174238598e-09
1.892301267e-09
1.313292244e-12
1.231122634e-09
-1.513814564e-09
-1.792910231e-09
2.341858366e-08
7.96776267e-09
1.229039083e-08
1.655145193e-07
3.264498189e-06
8.024277078e-09
4.849899182e-09
1.234823884e-07
1.808457393e-08
7.507047398e-07
2.581098616e-08
1.693100499e-09
7.361924745e-07
1.679865192e-08
3.302649619e-08
1.524483409e-08
3.969348453e-08
6.477074364e-08
1.903200446e-06
6.557399099e-09
1.952816766e-09
8.330275487e-09
-2.709673161e-10
4.108344188e-09
2.086514256e-09
-1.956209139e-08
-7.39625183e-09
7.89444541e-08
1.898408184e-08
-7.049959409e-08
3.024472675e-08
-3.50636438e-08
-1.027246978e-08
2.86053886e-08
1.374847477e-08
8.756142027e-09
2.108989803e-08
5.914180289e-10
-1.49669825e-08
2.71609408e-08
1.748315428e-08
6.676618797e-08
-1.269775825e-07
3.32319425e-08
-4.534051607e-09
8.025676459e-10
5.337121398e-08
1.535173663e-09
2.766356145e-08
5.805655077e-08
3.394898604e-08
-3.264416836e-08
5.398004672e-06
2.547136953e-08
-2.38251688e-08
3.279961497e-08
-5.21336001e-08
6.137553159e-07
5.189673165e-08
4.736365181e-08
1.46365021e-07
1.621606109e-07
2.341289758e-08
2.290369872e-06
6.827727577e-07
1.063373853e-07
1.267138759e-07
4.577844395e-06
8.539307161e-07
2.989374201e-06
1.821242499e-05
1.400303454e-07
5.488867453e-09
-7.194278174e-08
-2.135543446e-07
-1.160958245e-08
-8.085909743e-08
-1.56179163e-08
-3.01451395e-08
1.602871006e-08
1.382425485e-08
2.296317725e-07
-1.444070139e-08
4.482870655e-08
1.994930142e-07
-3.319572393e-09
-8.181821271e-09
5.955089043e-08
-3.168386163e-08
8.093031438e-08
-9.717405871e-09
1.21075443e-09
-1.149055507e-07
-8.040173116e-09
2.881835855e-07
-9.221264139e-09
8.718182541e-09
2.491752033e-07
1.220754456e-07
1.592080392e-08
1.717904928e-08
8.190379558e-08
2.932626661e-08
4.617383813e-08
4.476692887e-09
1.036174998e-08
2.924813155e-07
-8.076635235e-07
4.654675328e-08
7.139365675e-07
3.166969669e-07
1.297814224e-07
1.03900203e-05
3.493535573e-09
4.508606244e-08
4.127415766e-08
1.173934041e-09
1.038585687e-08
1.639625002e-07
1.765512752e-07
2.664424121e-07
6.677393139e-07
-8.454015603e-07
4.405329126e-06
6.764476105e-06
1.611622845e-07
7.456214114e-07
-3.242342052e-05
-3.786324616e-08
-5.234553385e-08
-3.327505107e-07
-7.203671153e-08
5.408316176e-08
-5.767592722e-08
1.399429142e-08
3.971634951e-08
-2.327226409e-10
2.799710568e-11
5.534463596e-08
4.509854089e-09
1.262103988e-07
-2.730993262e-07
-6.007918143e-10
1.234813833e-09
1.246686008e-11
1.82233855e-08
3.971907864e-08
-4.913718103e-10
4.218228898e-09
8.30473187e-08
1.946470692e-09
-1.94796247e-08
2.253914822e-08
-5.800613692e-08
-1.303426912e-07
-9.984636015e-08
-4.730055469e-09
8.445225571e-09
-9.518126795e-08
-1.515514673e-11
2.370821652e-10
1.866799553e-08
8.192112744e-08
1.700435356e-08
-2.3880772e-10
2.223447859e-10
1.49413232e-08
-9.452004295e-08
-7.739199457e-08
3.77838587e-08
6.064234529e-09
3.757967859e-10
2.915292007e-08
-1.275078653e-07
1.270982702e-08
1.222581982e-08
4.971835221e-10
6.802463703e-09
1.559030478e-08
1.659622202e-08
3.400530969e-08
8.262655264e-08
9.086098616e-09
2.89178532e-09
1.156603266e-08
-8.154551254e-10
1.611781999e-09
1.665466399e-08
2.021457846e-07
6.519094117e-08
2.323947928e-06
2.868456781e-08
1.227231745e-07
1.645444616e-07
1.941496693e-06
2.24130027e-06
8.253372699e-09
3.862460504e-06
7.875488615e-09
1.695631782e-06
2.167793623e-06
8.328235704e-07
8.741874421e-09
8.843024771e-07
1.077822812e-06
3.917329909e-08
3.516024036e-06
1.670008276e-07
5.284609382e-06
1.10616652e-05
5.395094182e-08
4.617274069e-09
-3.577526707e-10
2.766414727e-09
1.242577925e-08
2.121799739e-09
5.443366907e-08
-3.0746071e-10
-1.861183343e-09
-4.615865726e-10
2.003084621e-08
5.417277326e-09
1.282092297e-10
-4.888796585e-09
1.720942888e-08
-9.997119264e-08
3.562897297e-08
5.95631164e-09
-9.456788187e-08
7.595581188e-09
1.427169349e-09
-4.180354066e-10
1.924050878e-10
4.318034234e-08
5.177533928e-10
3.972637283e-08
-3.131423351e-09
-8.946415208e-10
-5.675226907e-09
5.610729292e-08
5.093941458e-08
-7.00322567e-08
6.628617477e-08
1.522487336e-09
-9.18152048e-10
1.365598885e-08
3.693818425e-10
-3.13416083e-10
9.467079409e-09
3.967797009e-08
-1.911449532e-09
-5.871604948e-10
5.752153837e-09
2.556629663e-08
1.086354649e-08
1.443578011e-06
2.175777466e-06
5.286703371e-07
3.386578937e-08
1.109921396e-07
4.213967442e-09
2.813051854e-08
7.097092882e-08
2.640427062e-08
5.885257201e-08
4.593784337e-08
1.31744036e-08
0
1.409906106e-07
-1.401465012e-07
-1.397315994e-07
3.236518094e-08
1.681362948e-07
8.123078055e-08
8.025465096e-09
-2.374190845e-09
2.440844836e-09
1.83308769e-11
-7.814978827e-09
-6.009170324e-09
6.197491134e-09
-6.966981638e-09
-6.317000849e-09
2.648930219e-10
-3.274081269e-08
-2.193670502e-07
-3.390037643e-07
9.123670398e-09
-4.332584986e-10
1.91625347e-08
2.668762092e-08
2.722281202e-07
7.312118684e-08
-4.644086857e-10
1.864447179e-07
3.05168697e-08
-1.057624483e-08
1.595026372e-07
2.877812732e-09
1.472128186e-07
3.799673364e-09
5.555852732e-08
7.842133753e-09
1.772406671e-09
1.112211213e-07
2.401987959e-07
-1.099145136e-07
-8.385882006e-07
1.769703233e-07
-3.829036872e-07
1.813813806e-07
4.749990836e-09
6.879360085e-08
4.014809278e-08
6.051703291e-09
5.481895679e-08
3.822350005e-07
8.543401978e-06
9.78312789e-08
-2.53770329e-07
-2.191507598e-07
2.622300827e-09
1.059225276e-06
4.93577973e-07
9.367255939e-06
5.212320291e-09
4.723402508e-06
1.122155483e-06
2.835551691e-06
9.284200118e-07
2.947957476e-06
1.25351131e-06
1.96239927e-06
1.93787233e-06
-4.490231579e-06
1.509190106e-05
-6.458028842e-06
2.669919055e-07
2.339564486e-06
0.0005916894086
0.0005329303563
0.0002424140898
0.0003229541951
0.0006477692518
0.0003052791431
0.0002767692214
0.000168260056
0.0005416578287
7.298455299e-05
0.0005699959501
0.000257222253
0.0001480017925
0.0001635060167
0.0006476152687
0.0003824996695
0.0004133651137
0.0002168360584
0.008642070108
-0.0006099483316
-0.0002487613437
-0.0004918180795
0.01092159426
-3.44455115e-05
-0.0004882281089
0.009276535798
-0.0005100354659
-5.989553197e-05
0.0004403263918
0.0006749163219
-0.0003228376382
0.0005828878244
0.0004725701309
-0.0003775633259
-0.0002144571408
0.003995629304
0.01287586727
0.06439542031
0.006840718306
0.09725295158
0.06926698139
0.09422306734
0.01215220854
0.08070386113
0.07110608029
0.02523030597
0.09356089043
0.07064146481
0.1370635271
0.0924979962
0.03646985755
0.06503699206
-2.071002765e-05
1.435740057e-06
4.721194784e-07
-1.95038622e-08
3.36423794e-06
1.241785929e-06
4.207903788e-07
2.928184646e-06
2.989627661e-06
1.786435595e-07
-2.904925588e-06
0.0003321187366
0.0002868751346
0.000145233551
0.000205624034
0.0001223005004
0.0003341966775
0.000426845597
0.0003395025492
4.162241415e-06
0.0001881556372
0.0002608373878
0.0002351937127
0.0007077737088
0.0001965856476
0.0008321992857
0.000543892617
0.0005002653449
0.001620301567
-0.0003978686327
0.0003904670376
-0.0002826284279
0.001132189571
0.0001459031614
0.0008897465157
0.0005858527694
-0.0001399536513
0.0009491462243
0.009433626394
0.003567115338
-0.0005015423959
0.04352721683
0.07393873497
0.1282968304
0.07668903378
0.03234278841
0.03155614452
0.09940317004
0.06367795625
0.07089401902
0.01612722618
0.07793209057
0.05083162009
6.019656004e-07
2.123113925e-07
3.587555967e-06
1.599153066e-05
-7.925604114e-07
-3.192597952e-07
-2.124905001e-06
-2.93561633e-06
1.257280376e-06
4.415332268e-06
-9.683885672e-07
0.0003693652737
7.568348534e-07
0.0005508431143
0.0009193794939
7.741053276e-06
0.0001102304247
2.730066354e-06
5.15487952e-05
0.0002456172664
2.863761833e-06
0.00075769559
5.206648497e-06
0.0006722756492
1.534997427e-06
0.000735688741
-0.0006065352101
0.00051927616
-0.0007447987886
-0.0001236212965
0.0003171351851
0.0006248699014
0.0009813463054
-0.0003084546505
-0.0001023953543
0.0001714925397
0.05220189371
0.0966481911
0.05633460287
0.0605899704
0.09431617835
0.0004321059728
0.06553256564
0.02622200436
0.0706199212
0.04601807894
7.768743202e-06
0.03639831407
0.08391432162
0.04288686058
0.04294509047
-0.01215464652
0.04302963246
0.01612248948
0.02990528439
-0.01012552634
0.1312312815
0.01902279684
0.03826615982
-0.007033136221
0.001655937871
5.369816477e-07
1.669273662e-06
1.45241882e-06
4.01560774e-06
0.0003467796713
2.339755112e-06
7.713585955e-09
0.000204144015
3.4748837e-07
3.950994199e-06
-2.918431005e-07
9.76567503e-07
1.108198618e-06
7.748452753e-07
4.809636532e-09
1.408236985e-06
3.572352079e-06
-1.562198683e-07
0.0006238400461
0.0002413061988
0.0002638023894
0.0003849004663
0.0004708183512
0.0003776941196
1.586297043e-06
0.0003623450434
0.0001274818757
0.0001173362377
0.000781748615
0.0006057766795
0.0007289253609
0.0001641008414
0.0002198488074
0.0002433448781
0.0004984322431
0.000100323579
0.0006174445047
0.0003686376487
-0.0001890784827
-0.0003913818839
0.0003288632616
-0.0001325822714
-0.0008783599805
0.0009472094351
0.0009686787255
0.001868039325
-0.0001134640163
-0.0003453239398
0.04092020454
-0.0006069546459
1.576121638e-05
0.0006202854472
0.01136190197
0.0001752722679
0.01197827465
0.001031956862
0.003214419534
0.0006579019329
-0.0007332484395
0.01887121763
0.1426398212
0.07416955951
0.05213438153
0.09133885705
0.04705549191
0.0604696296
0.09566607091
0.07009331136
0.103521375
0.01353078118
0.02908514126
0.08057469109
0.1285397503
0.1717283252
0.09829179279
0.08000414448
0.09721393261
4.696835912e-06
-3.081343813e-06
1.087390754e-06
0.0002167397457
5.140767445e-06
9.476582224e-07
-2.703545702e-06
0.0001769215095
2.671383557e-06
-1.54288969e-06
-1.485187878e-07
6.656846612e-07
-7.563133775e-06
0.000125863355
0.0004894663106
0.0002917049053
0.000609624289
0.0002116963793
0.0008554465108
0.0001340054284
0.0001276095101
0.0002534241423
0.0001757960636
0.0003169299493
0.0002306719274
0.0007143370532
0.0007077558446
0.0008985845675
0.0002900538078
-0.0004638993392
5.417372577e-05
-0.0001541360159
0.02406844736
-2.621743657e-05
-0.0001850005483
0.05196460887
0.06153177357
0.1041846417
0.09123005807
0.06603803971
0.03876823929
0.09871097864
0.05582780432
0.05731930088
0.0008922655804
0.04251034499
0.001257913738
0.0388799115
0.009333050797
0.04432420227
5.062354706e-07
3.670909513e-07
1.117589595e-06
1.886708484e-06
0.0002656919193
4.697000499e-06
3.573790462e-06
0.0002264397796
1.112917057e-06
8.954635958e-05
-5.67912136e-07
5.69282802e-07
3.163541952e-06
1.483767936e-06
8.044191863e-07
0.0006491794253
0.0001314439566
0.000141633721
0.0007758668414
0.0003038613736
0.0005747465351
0.0007216687097
4.9748527e-06
2.490329082e-05
0.0002857744819
0.0008233647858
-0.000442706927
0.0002132982953
-0.0004660315464
0.0003253751807
0.0003178550827
-6.718456342e-05
-0.0002550663811
-0.000623899984
0.0006571905932
0.0009465751401
0.0004775052732
0.1027219608
0.09269416858
0.1005501905
0.05790635847
0.06328909605
0.07869585461
0.0321568847
0.02369004957
0.05021118767
0.08362824238
0.1176102987
0.07056143653
0.02389898293
0.1075514444
-0.008771416605
-0.003890231872
0.0002530663526
2.644927137e-06
6.071576901e-06
2.971717305e-06
1.987938969e-06
2.753094783e-06
2.155213118e-06
4.817116248e-07
4.64983694e-06
1.630510529e-07
0.0002901792012
2.713719636e-06
5.408814863e-06
3.174946761e-06
2.237167068e-05
0.0003353608692
0.0003277738601
0.0007717482848
0.0004761668271
0.0003027080034
0.000295533245
0.000922671921
0.0001752144856
0.0003861583444
0.0003510512783
0.0004844672983
0.0007544827137
0.001128902837
0.0002000495264
0.0005015091534
0.0005016451715
3.838185095e-06
0.0008494015539
0.0004434083626
-3.728976682e-05
0.0001093449958
0.0001898272
-0.000809961734
0.000308730816
0.0123011936
-0.0005401223512
0.0006191278023
0.003803374861
-0.0002944411127
-0.0001198199742
-0.0005816828042
0.004036307838
0.003303882618
-0.000248552587
0.001256136538
0.000883999849
-0.0004725487747
0.001008440237
0.05130330574
0.1001059629
0.04735637839
0.003206902664
0.02102815535
0.1251941896
0.07876212828
0.01011940956
0.09215138895
0.06186382151
0.0369824169
0.1091819579
0.000457995732
0.1217598682
0.06959509829
0.007811572145
-5.918135109e-06
2.179934076e-05
5.853414356e-07
2.621214584e-06
7.86504647e-06
1.99422758e-06
-7.425989569e-06
7.502639192e-07
1.669910396e-06
-5.280818204e-06
-8.460783229e-07
8.404991538e-07
-5.547743822e-07
1.791903768e-07
0.0006734884052
0.0007476255931
7.407931053e-05
0.0004344345122
9.936873209e-05
0.0002863380787
0.0002783421286
0.0004664012287
8.058733364e-05
0.0004163507412
0.0002844420515
0.0002006558497
0.0002525611213
0.0001641175942
0.008359969975
0.0001886809868
-0.0003147886252
-0.0001394863418
-7.058284452e-05
-0.0001286229551
-4.521394417e-05
-0.0003493204167
-0.0002143428852
0.01423337897
0.01125586671
0.06429234849
0.07948360733
0.05204995522
0.01202710339
0.1304721497
0.0207717591
0.07000086784
0.08362362477
0.06622463708
0.02321994994
0.07665968539
0.06252383688
1.537026438e-07
-4.893326454e-05
1.473859857e-06
3.726820432e-06
6.500195741e-07
1.781929744e-06
1.933251601e-07
1.589303529e-07
5.79083189e-07
-2.173670008e-07
8.11187575e-07
1.417027769e-06
3.767553993e-06
8.473823649e-09
9.111175213e-06
0.0004160342438
0.0006691887403
0.0002781323642
0.0002589294987
0.0002985122403
0.0002076278068
0.0002750710408
0.000132717466
0.0001299831687
0.0001470553349
0.0003854129448
0.000334193256
0.0002243800089
-0.0006259290762
0.006470183258
-0.0001421605648
-0.0002598513922
-0.0007648418626
-0.0002853818657
3.217631043e-05
0.009122655512
0.007885363876
0.0003877678751
-0.000190522049
0.03275295645
0.0003595350093
-0.0002097667327
0.0002667249863
0.02626120221
0.006768196409
0.06293292075
0.08094553289
0.08727582104
0.07178121453
0.05711119995
0.05044641266
0.07288230745
0.008137293751
0.09211679536
0.05146455011
0.132511997
0.007458013232
0.02566196209
0.08231077946
0.09961015087
0.06437954297
0.08722202218
0.1155050401
0.007948369393
0.03752037362
0.1120703179
-0.00276415439
-2.257710326e-06
-6.309767994e-06
2.891218919e-06
0.0003307722712
-2.513000139e-06
2.214352691e-06
1.586442284e-06
-2.330498204e-06
-1.405569454e-06
2.73522145e-06
-5.398879895e-06
-1.404699599e-06
3.347395875e-06
2.532889994e-06
0.0002726599584
3.989656246e-06
1.094518566e-05
2.008722721e-07
8.685499728e-07
7.624450076e-07
3.093861571e-06
8.901380098e-05
0.0002979860722
0.0006619173872
0.0002987082942
5.978059602e-05
0.001320287041
0.0006833473048
0.0002870614365
0.0005446050608
0.0002038885909
0.0003372413243
0.0007442915232
0.0006946283521
4.339516666e-06
0.0003865694562
0.0002256036078
0.0001460347061
-0.0002287895821
-0.0007618579071
-6.180099867e-05
-0.0002381080763
0.0001844511011
0.03978766924
0.000368456442
0.0101050016
-0.0003620470172
-0.0003027972171
-8.80273343e-05
0.0475600048
-0.0003212646631
0.0008861239086
-0.000224039594
0.003532978492
0.0006341927873
0.03110217768
0.08889931466
0.03834947973
0.05375137997
0.03285385312
0.03444298307
0.1425039906
0.01913098203
0.007631784474
0.08967303588
0.06259415672
0.1014578558
0.0907200751
0.05469962728
0.0759403801
0.004071882988
0.1172513131
0.08237922023
0.003391798194
2.235454794e-06
2.700619025e-06
2.0630853e-06
0.000397989764
4.558108316e-07
2.976288949e-06
9.530106653e-07
1.195595453e-06
1.839030276e-06
3.037560891e-06
6.916855094e-07
0.0002438865417
0.0003673700382
0.0001247003455
0.000188049615
0.0002999486002
0.0003744318588
0.0002819232125
2.024772459e-06
0.0002642618938
0.0005228887241
0.0008333134646
0.0005112501421
0.0006528513004
-0.0004505848983
0.00973938584
8.979662782e-05
-0.0002317272244
-0.000413779677
-8.881302705e-05
0.0301899754
-0.0003475101246
0.001006294286
0.02690043471
-0.0007858136694
-0.0001587956947
-0.0003700840327
0.005985174721
0.005438797234
0.008977900348
0.1108485708
0.1291292885
0.06441220567
0.05760673316
0.03723571193
0.09646367193
0.04633013253
0.1255927644
0.06342972602
0.06380514059
-2.496113904e-05
0.02899375525
3.411132671e-06
1.750361195e-06
2.608010488e-06
3.581363004e-07
1.533655519e-06
7.75086009e-07
0.0001632008812
-3.293265827e-05
8.154212814e-07
7.153649776e-07
1.555890825e-05
3.037546167e-06
4.751226726e-07
0.0001236882638
0.0001581923516
0.0004745295887
0.0004215998672
0.0003714720208
0.0004994594037
0.0002198768181
0.0001094456979
0.0006714090258
0.0001913744557
0.0005708726748
0.0003998715852
3.088535858e-06
-5.6799202e-05
-0.0002793392575
-7.824764732e-05
0.004601165256
-0.0005511406669
0.02744193305
6.932424761e-05
2.771156614e-05
-0.0005144489567
0.0006317964868
0.0006138819312
-8.835427357e-05
0.0006683144541
0.1133546657
0.02262698627
0.07439347151
0.0551939639
0.02467119382
0.06636269238
0.02850431988
0.02097712288
0.1158669953
0.05181644064
0.03583594898
0.08801662376
-0.01202590206
0.01613462463
0.04206161883
0.09083981222
0.01007245249
0.1086063019
-0.05215897109
-0.08436671421
-0.003606229104
-0.04529274889
-0.03542224824
-0.03030378695
-0.06046904713
-0.03345904788
-0.04484662065
-0.02950781525
-0.04169349718
-0.02850913733
-0.0380932523
-0.08050470093
-0.02045699694
-0.04588728452
-0.03295448382
-0.05637297871
-0.07428671065
-0.02384329096
-0.009644041386
-0.07825949554
-0.0007161325594
-0.03536604867
-0.0103911551
0.00943520612
-9.880668241e-05
-0.0002120139724
-0.0009573594372
-0.0001319795455
-0.0003341282952
-0.0003800053673
-0.0001719581981
-0.0001889572499
-0.0004665257604
-0.0001554368247
-0.0002937549852
-0.0003639167274
-2.260913111e-05
-0.0002819053788
-0.0001645269766
-0.0003449256097
-0.02138076038
-0.0004204520675
-0.01439781313
-7.478994082e-05
-0.01389371942
-3.649270904e-05
-0.0003587341968
-8.445222752e-05
-0.006084198061
-0.0005189453516
-0.0002056653244
-0.04812488677
-0.04879730046
-0.05642448009
-0.06232402028
-0.03138881777
-0.05935567676
-0.05505238631
-0.0343884109
-0.06286198747
-0.03520207858
-0.03677436414
-0.06182987148
-0.04226608837
-0.03608101321
-0.03308235617
-0.01464545708
-2.276713192e-05
-0.0005660535839
-0.0001030518891
-6.863798172e-05
-0.0003368067777
-0.0001882502275
-0.0004007950052
-0.0002882084612
-8.850319238e-05
-4.557161122e-05
-0.0004173350544
-0.0002395612204
-0.0003969479693
-5.503520983e-05
-3.570730636e-05
-0.0004236065047
-0.01833434209
-0.003672525347
-0.03558844358
-0.04783275785
-0.03046705755
-0.07212575148
-0.0512118405
-0.0003186579455
-0.03271195981
-0.0675475219
-0.0287242675
-0.07352353395
-0.0003418903492
-0.03426712076
-0.01372682764
-0.1003777722
-0.03678546824
-0.04214897095
-0.06888209622
-0.03851426773
-0.0003167563766
-0.0001908772998
-0.000588467005
-0.0002829508606
-0.000210656479
-0.0003105265674
-0.02253282338
-0.0002321982877
4.783624619e-05
-0.001242322719
-0.0002203825521
-0.0002716098687
-0.01287387453
-0.0002995723627
-0.0007083056906
-2.479670866e-05
-0.03060604093
-0.08222734351
-0.06569437945
-0.04449647199
-0.03451686979
-0.03371075275
-0.0007461085484
-0.05227785646
-0.05861380438
-0.03423129355
-0.06367707118
-0.04395562908
-0.05446999355
-0.002025632717
-0.03307615826
-0.03371575392
-0.03632082106
-0.02872464576
-0.08074662016
-0.0935686902
0.01357292819
-0.07562428849
-0.05547300998
-0.02877075865
-0.05599263799
-0.0342256421
-0.02433467189
-0.0005281725499
2.582413071e-05
-0.0004191895061
-0.0003509691759
-0.02963314978
-0.001717460245
-0.00010259091
-0.0003669100563
-0.001980954268
-0.01098730571
-0.0005338815455
-0.0004736610083
-0.0006429280927
-0.0003071323522
-6.307764624e-05
-0.02604469863
-0.0002630512458
-0.05238240584
-0.03533218195
-0.005290833898
-0.05726044894
-0.04100824872
-0.05750829795
-0.03251433099
-0.06201042514
-0.091327765
-0.003179634292
-0.0618482912
-0.01605764583
-0.01441387143
-0.0002778828467
-0.05939644518
-0.01391001761
-0.01581193851
-0.01590380809
-0.03379985228
-0.09293011252
-0.0373521822
-0.01362119351
-0.03768018933
-6.045988915e-05
-0.0003199000486
-0.0002393497114
-0.0001586849197
-0.0005086671689
-0.0002336572907
-0.0002596112891
-0.003611090594
-1.066763183e-05
-0.0007833425677
-0.0001945061882
-0.0004494945559
-0.0003933349669
-0.0001997825489
-0.0004160644549
-0.0001422953584
-0.06682901589
-0.03383104677
-0.06029817825
-0.0629636274
-0.06617756818
-0.00519793597
-0.07510034728
-0.02889905224
-0.03283625738
-0.07455390482
-0.08083442232
-0.04284217873
-0.02221432606
-0.07798189748
-0.04977913281
2.695661993e-05
-0.0003763085776
-0.0004404801214
-2.48827474e-05
-0.0003150476322
-9.83238941e-05
-0.02796327564
-0.009143287035
-6.91644413e-05
-0.000398125465
-0.0001377984546
-0.0004281657182
-0.0004827610024
2.292672839e-05
-0.0006234821874
-5.325251507e-05
-0.0004036996388
-0.0006113610548
3.951207244e-05
-0.0001291476296
-0.03834138449
-0.01761134792
-0.1047301839
-0.006209117878
-0.006019553127
-0.07676389291
-0.02629929783
-0.02074464051
-0.03707905555
-0.03245920959
-0.08532488191
-0.07526314242
-7.123170967e-05
-0.04860506685
-0.04079303109
-0.04093590058
-0.07632430806
-0.002495640629
-0.08894029555
-0.04151614623
-0.03981405045
-0.08433650136
-0.0309352658
-0.02372205626
-0.02147721676
-0.05596073633
-0.06551241806
-0.1065423152
-0.03663198098
-0.05076712348
-0.05672176146
-0.08340233039
-0.02415858148
-2.240486522e-05
-0.0001787713838
-0.008564338019
-0.0001395723337
-0.0002466132776
-0.0002944998552
-0.0002520850214
-0.0003057806509
-0.001048222475
-0.00326365141
-5.136803183e-05
-0.000172057757
-0.0003698571079
-0.0002241327077
-0.0001428932892
-4.806350122e-05
-0.03370578346
2.783315909e-06
-0.0002803817352
-0.02846869916
-7.07988848e-05
-0.0003706571892
-0.003534714352
-3.048793713e-05
-0.0068126315
-5.44432072e-05
-3.304247807e-05
-0.0001062295007
-0.000101423327
-0.02259755473
-0.06289192581
-0.09690411331
-0.07469149306
-0.03535540032
-0.06206165583
-0.06920957783
-0.03387802441
-0.05009998884
-0.04674567156
-0.03705087781
-0.005482592037
-0.06303430858
-0.05607785732
-0.0001896953708
-6.299020576e-05
0.0001122997709
4.182264823e-05
-0.02098032897
-5.149183135e-05
-0.0004129388108
-0.0005868611479
-0.0001150512721
-3.022138789e-05
-0.0005649179957
-0.02574162045
0.0001150335743
5.467207014e-05
-0.000285119414
-0.02327340012
9.944024709e-05
0.0004744342976
-0.0002553134277
-0.0005282709216
-0.0008140499202
-0.02425472134
-0.05436539865
-0.05480124069
-0.02852008208
-0.04662878359
-0.06578931375
-0.08407409377
-0.02683174878
-0.03419552365
-0.05073901517
-0.04145804549
-0.02561517784
-0.004575789838
-0.02614770208
-0.01921413769
-0.04250873035
0.0002627055492
-0.0003563714098