/*--------------------------------*- C++ -*----------------------------------*\
  =========                 |
  \\      /  F ield         | OpenFOAM: The Open Source CFD Toolbox
   \\    /   O peration     | Website:  https://openfoam.org
    \\  /    A nd           | Version:  7
     \\/     M anipulation  |
\*---------------------------------------------------------------------------*/
FoamFile
{
    version     2.0;
    format      ascii;
    class       scalarField;
    location    "2/lagrangian/coalCloud1";
    object      YactiveDryWood(s);
}
// * * * * * * * * * * * * * * * * * * * * * * * * * * * * * * * * * * * * * //


2000
(
0.006623653517
0.006633207815
0.006637197182
0.006635062526
0.006634669095
0.006633933444
0.006635440502
0.006627937073
0.006631167658
0.006627302569
0.006630432539
0.006626446285
0.006636342628
0.006629220932
0.006636493125
0.006638012246
0.006655170609
0.006630597055
0.006628952459
0.006634715284
0.006627296407
0.00663498591
0.006633721311
0.006643657162
0.006624227268
0.006632677249
0.006633431705
0.006627067542
0.006629227734
0.006631357357
0.006631696599
0.006632036798
0.006633325506
0.006638411083
0.006631060103
0.006626653179
0.006628591981
0.006636310211
0.006629505007
0.006628642231
0.006626035316
0.006625819874
0.006632046153
0.006632291139
0.00662863812
0.006639792893
0.006638294251
0.006633231303
0.006625995012
0.006623157812
0.006626894633
0.0066309663
0.006638744601
0.006626362865
0.006628840454
0.006628653955
0.006624184235
0.006626776816
0.006634912745
0.006628129029
0.006625123057
0.006631962534
0.006634674641
0.006631406645
0.006633546772
0.006635645512
0.006629269516
0.006645473999
0.006629746974
0.006637119837
0.006629536877
0.006633742085
0.006634971351
0.006633003275
0.006629111594
0.006624439027
0.006627544731
0.006635277869
0.006637968806
0.006638394961
0.006643984689
0.006630889021
0.006631043171
0.006645832877
0.006641769445
0.006634829128
0.006650524377
0.006632110776
0.006626712903
0.006644428422
0.00663102317
0.006633143457
0.006646425032
0.006632548576
0.006629885347
0.006635085993
0.006632215484
0.006632660516
0.006633181677
0.006632470434
0.006645605821
0.006628378927
0.00663238881
0.006630619705
0.006629659049
0.006632914699
0.006632785644
0.006638737981
0.006633461191
0.006634262595
0.006641228239
0.00663584401
0.006640459177
0.006630907209
0.00663445866
0.006627068405
0.006625603095
0.00663710578
0.006633425385
0.006634969476
0.006629861934
0.006636006406
0.006629362466
0.006634325373
0.006633702012
0.006633023734
0.006633741524
0.006630577716
0.006632982673
0.006650930251
0.00663901472
0.006628168477
0.006628617687
0.006632478543
0.006630538829
0.006642063972
0.006628074152
0.006631922357
0.006621110881
0.00663196588
0.006633913592
0.006634033002
0.006629155412
0.006643155299
0.006628171209
0.006624756344
0.00663548642
0.006634274067
0.006630379465
0.006631130599
0.006636283603
0.006636071019
0.006634600312
0.006637119656
0.006640395066
0.006624966773
0.006635160216
0.006627351721
0.00663212461
0.006626114674
0.006626260697
0.006633375363
0.006634750294
0.006629272244
0.00663427994
0.006633665479
0.006640406304
0.0066271428
0.006629634903
0.006633030989
0.006633186504
0.006631480744
0.006634966432
0.006631036895
0.006631726299
0.006624997544
0.006633585935
0.006632978265
0.006629771193
0.00662755252
0.006642720584
0.006629574409
0.006631000081
0.006638324392
0.006646519012
0.006640016164
0.006631783732
0.006636923648
0.006633316718
0.006637802685
0.006627658834
0.006631895034
0.006641958312
0.006629422925
0.006640469307
0.006635169125
0.006636078643
0.006624618548
0.006633468531
0.006629024784
0.006631846636
0.006633070802
0.006632642231
0.006639870521
0.006631452823
0.006630041936
0.006632642769
0.006640580147
0.006631476594
0.006630598569
0.006629228359
0.006634314857
0.006657713784
0.006637509886
0.006640443913
0.006632707431
0.006631002858
0.006630119425
0.006626693706
0.006638330014
0.006629823975
0.006633689986
0.006621422914
0.006622223096
0.006632363412
0.00662956843
0.006624002133
0.006627022451
0.006634237064
0.006625528479
0.006636298676
0.006627259497
0.006631909678
0.006636401781
0.006634011845
0.006624227738
0.006627028974
0.006635655724
0.006631363676
0.006627577257
0.006625120433
0.006628843431
0.006624592257
0.00662667496
0.006625277401
0.006629109872
0.006624730632
0.00662735483
0.00662647345
0.006628615018
0.006623850725
0.006646904945
0.006631949921
0.006624646994
0.006626182625
0.006626341181
0.006639457593
0.006626460429
0.006625404924
0.006625499003
0.00662495313
0.006626773756
0.006628098604
0.006631596774
0.006625490755
0.006636095815
0.00662733277
0.006626645613
0.006646973035
0.006624249329
0.006631249002
0.006633733104
0.006629250945
0.006636789173
0.006631279351
0.006643307294
0.006630776492
0.006632931341
0.006636386247
0.006640894625
0.006637615672
0.006635224135
0.006638901803
0.00663432274
0.006636969139
0.006635205882
0.006649654364
0.006628116036
0.00663844969
0.006639215323
0.006635167718
0.006632501491
0.006626549463
0.006632884123
0.006636583537
0.00663626512
0.006635467103
0.00663308903
0.006636642488
0.006641532819
0.006637075904
0.006649043704
0.006625746126
0.006632160526
0.006630290859
0.00663578797
0.006627546614
0.00663135725
0.006640318714
0.006631932728
0.006639098806
0.006637021119
0.006631564398
0.006628870365
0.006632946613
0.006632711331
0.006636926991
0.006631833679
0.006642929265
0.006625065562
0.006635670095
0.006637592156
0.006632766423
0.006629366798
0.006636735626
0.006631654298
0.006641086405
0.006627350832
0.006636926651
0.006626369916
0.006646934304
0.006636295572
0.006634965304
0.006630478961
0.00663037656
0.006628171157
0.006644082439
0.006627700375
0.006628852349
0.006630327364
0.00662872797
0.006631632443
0.006636580596
0.006667502386
0.006647760016
0.006644095238
0.006634609489
0.006634582785
0.006633042597
0.006636113336
0.006638270499
0.006629756274
0.006632682738
0.006632910915
0.006630075712
0.006635950529
0.006632134727
0.006632725436
0.006635924861
0.006620724302
0.006636395716
0.006634314111
0.006639574506
0.006624729315
0.006625305534
0.006639151124
0.006639145741
0.006636338516
0.006634259865
0.006634081695
0.0066343368
0.006637533057
0.00662641293
0.006638652883
0.006624805814
0.006630184499
0.006626289264
0.006639149226
0.006648798243
0.00664002671
0.006636367844
0.006631571686
0.006633008005
0.006634716731
0.006628025907
0.006632514851
0.006634066397
0.006649036349
0.006639929957
0.006633931784
0.006624778829
0.006627457381
0.006646321139
0.006628423168
0.006627717896
0.006637936398
0.006626639782
0.006635927774
0.006634171556
0.006635489491
0.006633326042
0.006631869958
0.006627787487
0.006630601337
0.006641743398
0.00663833543
0.006630046581
0.006626922422
0.006628919549
0.006634422913
0.006634836341
0.006645453348
0.006627359747
0.006630577344
0.006627077727
0.006629500697
0.006627070399
0.006633306279
0.00664177137
0.006635021518
0.006625897144
0.006628853975
0.006623643597
0.006631725596
0.006626809641
0.006632813114
0.006627846411
0.006623425849
0.006640184519
0.006630680914
0.006637898318
0.006634041488
0.006627703594
0.006627414011
0.006625298973
0.006633281772
0.00662664279
0.006640991504
0.006637548472
0.006633260751
0.006629367482
0.006636554273
0.006632366687
0.006631137946
0.006639524359
0.006628293887
0.006626639355
0.006633991474
0.006631135372
0.006635004881
0.006634073538
0.006636526984
0.006626844967
0.00662725105
0.006632908821
0.006637549918
0.00663019037
0.006638425713
0.006628508447
0.006640200774
0.006631274643
0.006629771
0.006630662014
0.006640651468
0.006629425256
0.006635192027
0.00663186193
0.006636412005
0.006638171394
0.006634675765
0.006639843023
0.006639476545
0.006646979215
0.006626176677
0.006630140387
0.006636190755
0.006630357459
0.006629283734
0.006633847163
0.006633997533
0.006631114681
0.006637052187
0.006633486195
0.00662782935
0.006641624914
0.006634109489
0.006641395774
0.006629485174
0.00662857535
0.006638807092
0.006636443054
0.006637004305
0.006629585326
0.006635596784
0.006630292178
0.006631853113
0.006634297613
0.006628731551
0.006623008455
0.006645234658
0.006639188073
0.00662282678
0.006640367557
0.006641257816
0.006633717312
0.006632162505
0.006633037493
0.00662754651
0.006630559592
0.006632965396
0.006630677564
0.006631981306
0.006636987047
0.006633959941
0.006634962811
0.006631168739
0.006640549611
0.006633574889
0.006630629717
0.00663908909
0.006640391967
0.006643502321
0.0066437454
0.006629312608
0.006630703042
0.006639351066
0.006640488312
0.006631918452
0.006649040744
0.006640590141
0.006648119447
0.006630810723
0.006633868886
0.006635574618
0.006634771094
0.006637335842
0.006629165816
0.006636323537
0.00662942714
0.006628438696
0.006631436375
0.006631217462
0.006626272957
0.006633785893
0.006629194927
0.006631468981
0.00663469702
0.006628436435
0.006636149607
0.006629727066
0.006634594677
0.006631008267
0.006634127713
0.006637455029
0.006630715202
0.006633379668
0.006626775237
0.006622513716
0.006628197316
0.006633595488
0.006622357544
0.006632039327
0.006631485349
0.006632072916
0.006648375641
0.006635190288
0.006646926976
0.00664046444
0.00662568252
0.006637344345
0.006632568463
0.006638758583
0.00662571949
0.006632026647
0.00663300128
0.006637164082
0.006638646663
0.006629277209
0.006633471134
0.007048799402
0.006640580279
0.006629671791
0.006651809088
0.006640028388
0.006636819239
0.00663782678
0.006638625543
0.006625549397
0.006636889353
0.006631709337
0.006628602923
0.00663614891
0.006631968966
0.006628074705
0.006637769738
0.006640476205
0.006628927264
0.006635575496
0.006629932186
0.00663389884
0.006635485631
0.006636911979
0.006633039086
0.006632453682
0.00662595496
0.006626500431
0.006636698615
0.006636252601
0.006640624375
0.006626325604
0.006622476356
0.006630290224
0.00662802428
0.006636311987
0.006624449358
0.006629251495
0.006632749105
0.006632443885
0.006626637902
0.006630098601
0.006634161434
0.00662880649
0.00663237461
0.006624965068
0.006623060243
0.00663368975
0.006628352197
0.006633959086
0.006631042219
0.006629689201
0.006625477578
0.006634415405
0.006633502933
0.006637962127
0.00662867955
0.006633925977
0.006632213743
0.006629480535
0.006632874579
0.006631455777
0.00663362273
0.006624504296
0.006626033753
0.00663128725
0.006628164836
0.006632827345
0.006632469373
0.006638673132
0.006628050751
0.006632363112
0.00662768449
0.006627040723
0.006626004027
0.006629620062
0.006636070865
0.006625414462
0.006630348034
0.006635326001
0.006626184969
0.006642249526
0.006633474962
0.006639471267
0.006624561294
0.006631205145
0.006628721485
0.006631842645
0.006634627375
0.006695212468
0.006632421132
0.006632656241
0.006632377914
0.006638152862
0.006627617097
0.006629771596
0.006638623985
0.00663172161
0.006636129188
0.006627757235
0.006637431105
0.006636274151
0.006646485322
0.006634728319
0.006641301682
0.006631028413
0.006635313947
0.006635263679
0.00663035456
0.006623995419
0.006631310804
0.006638821608
0.006628423088
0.006637370385
0.006632008312
0.006633611091
0.006625358004
0.006636713581
0.006626646474
0.006637737707
0.006635616535
0.006641940211
0.006637941594
0.006625042169
0.006626897138
0.006639424662
0.006632729735
0.006635884183
0.006635756336
0.006635233065
0.006650702911
0.006628257586
0.006636958084
0.006635605198
0.006628902674
0.006636741236
0.006637146315
0.006628978358
0.006628937558
0.006638184003
0.006635343501
0.006652162566
0.00663837103
0.006633101905
0.006627116136
0.006639724496
0.006630277049
0.006640964344
0.006627255968
0.00663601372
0.006636638231
0.006637166015
0.00663499063
0.006635195373
0.006630855012
0.00663411015
0.006641183063
0.006639082616
0.006629596225
0.006640325293
0.006641065193
0.006627864856
0.006628737904
0.006633360991
0.006628263295
0.006628339167
0.006627441174
0.006633621341
0.006629976503
0.006636304131
0.006628075418
0.006631671485
0.006636574229
0.006629855141
0.006624797778
0.006631758222
0.006633773758
0.006630609617
0.006629467551
0.006636616664
0.006640288228
0.006633543266
0.006632326144
0.006634383904
0.006638794629
0.006631356657
0.006628667449
0.006627841087
0.006632767719
0.006627988943
0.00664511953
0.006637409982
0.00662995635
0.006635028181
0.006632970869
0.006643732011
0.006632710656
0.006631419238
0.006630060921
0.006636210226
0.006628002111
0.006630039829
0.006630383208
0.006625261667
0.006628254872
0.006630065313
0.006627724555
0.006635526819
0.006640961792
0.006627473861
0.00664182363
0.006632024339
0.006640118571
0.006636103334
0.006634419439
0.006628307468
0.006643506841
0.006637525906
0.006635665035
0.006642705811
0.006629681
0.006635938233
0.006639366824
0.006636086624
0.006642661893
0.006630190931
0.006629550373
0.006660125697
0.006632557737
0.0066346623
0.006638172879
0.01511179229
0.01345487511
0.01459841169
0.02127984026
0.01655336252
0.01221275809
0.01134304911
0.01282960681
0.01251719573
0.01212284921
0.01306139889
0.01129107983
0.01105713702
0.008576258296
0.01138670594
0.01208729607
0.01112076375
0.01235718411
0.02509495378
0.06016958371
0.05767764033
0.1256464307
0.0646320041
0.1200615278
0.01390337008
0.08253912638
0.04525005257
0.01757850367
0.05837733996
0.04656386569
0.1321215905
0.05324145559
0.02183657054
0.04809617006
0.008108557416
0.006634972553
0.006635400166
0.006640167295
0.00663814067
0.006639800952
0.006626585423
0.006640772887
0.006629997546
0.006932014742
0.00663020898
0.006641750085
0.006635900618
0.006640809694
0.006650999219
0.006641694149
0.006642949951
0.006635498968
0.006636722673
0.006639923012
0.006635650885
0.006629287705
0.006632980769
0.006637252123
0.00663339788
0.006630298674
0.006638370546
0.006636177883
0.01325070733
0.01236572167
0.01030743411
0.01300939863
0.01636545837
0.01553076125
0.009928221082
0.01599652508
0.01528980101
0.01012954225
0.01406715087
0.01388447887
0.021629308
0.03765581011
0.07127703102
0.125513542
0.09472503437
0.0281111835
0.1241021981
0.1332625317
0.1472375739
0.1022707215
0.4484802981
0.08551486424
0.03557585446
0.006637985548
0.00665264671
0.006644952379
0.006646887266
0.006632849768
0.006642926984
0.006627950549
0.006632417068
0.006628505099
0.006628152127
0.006647478612
0.006632856738
0.006643545802
0.006639242488
0.006648473922
0.006636601562
0.006632055963
0.006634811521
0.01064625905
0.006642686249
0.006625891556
0.006646550065
0.006633721637
0.006657010851
0.006629682542
0.006651535514
0.01417274704
0.01285204725
0.0210820209
0.0141604624
0.01413148587
0.009344799979
0.01352717087
0.01150268498
0.008795159129
0.01169404422
0.03891820326
0.1131005726
0.1153152852
0.09374994914
0.09056908031
0.01014199557
0.02833710885
0.01786813515
0.07569551135
0.03010570077
0.02809107056
0.02178938434
0.06819930258
0.02428340779
0.8025447853
0.0180052603
0.7921628909
0.5536985477
0.7528415091
0.1629313682
0.1523740697
0.5157692192
0.7634285226
0.6599758779
0.02186883469
0.00663548132
0.006629771643
0.006634060885
0.006629867042
0.006638293366
0.006628337104
0.006638953406
0.006632899942
0.006633901387
0.006632597024
0.006636692292
0.00662859748
0.006636658696
0.006631269125
0.00663193139
0.006626436587
0.006634358093
0.006667435164
0.006634497102
0.006631538348
0.006630068138
0.00663048216
0.006638189404
0.006630222025
0.006629746527
0.00662755604
0.006637427275
0.006631281495
0.006642145207
0.006634405655
0.006639710897
0.006632423182
0.006632506429
0.006634911914
0.006632226653
0.006650130115
0.006643486741
0.006634375271
0.02101367843
0.01216640228
0.01094697872
0.01092795288
0.01987431829
0.02117431345
0.01202907894
0.01106412332
0.009428359076
0.01117238774
0.03554943518
0.01435280367
0.01430947137
0.01508157466
0.01613722553
0.01327848872
0.01443935555
0.01209003545
0.01470942099
0.01377355949
0.01202283322
0.02396974452
0.1227966948
0.08407727558
0.1273935018
0.08416891658
0.01604313648
0.03487385317
0.1102613234
0.06633086102
0.09883197211
0.01168739143
0.01378282121
0.1060917308
0.1006031016
0.1091463766
0.1198959579
0.08228581999
0.1245988468
0.006627818753
0.006917879644
0.00663115912
0.00662866277
0.006628272952
0.006639820247
0.007828086284
0.006630231885
0.006646113809
0.006646760343
0.006638943687
0.006653790166
0.007808330835
0.006633555479
0.006638114791
0.006636550204
0.00664041923
0.00663542576
0.006637229866
0.006631243376
0.006638922429
0.006645444001
0.006641804587
0.006641429698
0.00664064626
0.01424140795
0.009288882346
0.01016694149
0.009956821701
0.00999934357
0.009395099845
0.01016191366
0.01382137474
0.0113843651
0.01092751583
0.01264747782
0.09321794878
0.06824308166
0.07683807136
0.08173345945
0.0327952346
0.09030821372
0.03266624244
0.05290839288
0.01154315319
0.04293959067
0.01058013455
0.01638414899
0.09106345994
0.05150227933
0.006627424673
0.006639112137
0.006650456654
0.00663065844
0.006644703076
0.006635894561
0.006638223225
0.00664238758
0.006646494838
0.006642473268
0.006674702744
0.006631400159
0.006626178648
0.006626957857
0.006630754321
0.006637608999
0.00663172336
0.006646338748
0.006638393121
0.006643954459
0.006635034841
0.006645846225
0.006628827318
0.006647211299
0.006640493973
0.01335934626
0.0126673555
0.009439585472
0.01303005132
0.01298488986
0.009361601502
0.01348249406
0.01274456771
0.01305476445
0.01049250407
0.01155557825
0.01433331762
0.1207250936
0.07767314437
0.07290857217
0.04182648674
0.0660930471
0.06037622269
0.01795394293
0.01783069811
0.04938569749
0.1220968791
0.07691410315
0.1070955833
0.01888706708
0.1206774298
0.06586751819
0.3435006039
0.00663690154
0.006633048632
0.006635013146
0.006632176098
0.006635786156
0.006632247011
0.006647195814
0.006646032003
0.006638546749
0.006627980337
0.006634750779
0.006633379741
0.006629480928
0.006628015782
0.006638016533
0.006634872693
0.006631956668
0.006643595659
0.006682179279
0.006637476966
0.006637595623
0.006651561351
0.006630163209
0.006630501924
0.006630424243
0.006633056208
0.006638025703
0.006639598381
0.00663538003
0.006638105301
0.006639007741
0.006628871701
0.006635950284
0.01770259685
0.01370777896
0.01708858809
0.01320320783
0.01673184432
0.01699241961
0.01234595176
0.01185152122
0.01304435988
0.05525512816
0.01313944828
0.01991076234
0.01922196462
0.01771942492
0.01748017376
0.01006049228
0.02054806235
0.02066458548
0.01678826788
0.01045748362
0.05008790504
0.1143934481
0.02336859355
0.0149769706
0.5164012781
0.09257565725
0.09867442363
0.02573419854
0.110347348
0.0532423828
0.03578409514
0.1217694247
0.02299383763
0.09591273874
0.07351229867
0.02231242699
0.006642086137
0.006638472575
0.006639564097
0.006631091921
0.00664350574
0.006628303482
0.007660067853
0.006642599705
0.006642801265
0.008179658541
0.006629045456
0.006651815563
0.006636892575
0.006654573116
0.01383976696
0.006645142595
0.006641018142
0.006638089911
0.006644998437
0.006629484717
0.006664224438
0.006634012252
0.006636565683
0.006648784512
0.006632735483
0.006648400649
0.006648467168
0.006648980368
0.01820966155
0.01016354588
0.01849194812
0.01758884588
0.01174874747
0.01159162491
0.01183962469
0.02010376861
0.01245129696
0.01335872472
0.5258049868
0.05656717738
0.09200946676
0.8236958792
0.01210155094
0.1207124873
0.01520198117
0.04160382808
0.8868603476
0.05667255615
0.0186521959
0.129203847
0.1145579084
0.006633788323
0.007493623749
0.006644042619
0.006629940469
0.006644039367
0.006633289201
0.006640979483
0.00662915036
0.006651434226
0.006639714717
0.006646764681
0.006638030252
0.006646752359
0.006639753139
0.006642798193
0.006637960236
0.006641922179
0.006641457953
0.006636631268
0.006636972175
0.006650014799
0.006649609239
0.006636043581
0.006644059391
0.006639954765
0.006634441637
0.006646972303
0.006637338013
0.01645866301
0.01582261937
0.01252952956
0.01403836297
0.0249104926
0.02514365567
0.01413422845
0.0280731475
0.02638402302
0.009050863696
0.01139468607
0.01691791381
0.006942331516
0.0115911868
0.01081214451
0.05501626653
0.01908616231
0.1482329155
0.02531198059
0.08685844357
0.1038498656
0.03934300323
0.02739807166
0.09033671021
0.01253112762
0.07798223432
0.8483551677
0.6742454051
0.3729111119
0.7151031955
0.7562110292
0.9460652646
0.91092951
0.1785786568
0.947695654
0.6463316392
0.9144151942
0.2114924084
0.4000329629
0.006650007584
0.006639828845
0.006639218597
0.006643753579
0.006636697498
0.006631995955
0.00662922447
0.006626615041
0.006633006781
0.006636282196
0.006636476427
0.006628904403
0.006626703742
0.00662842351
0.006630675064
0.006629383364
0.006636317162
0.006628899985
0.00663090013
0.006627554612
0.006638699951
0.006650155746
0.006630486277
0.006641715875
0.006632232441
0.006630015193
0.006636884498
0.006653754532
0.006627954075
0.006634801183
0.006643247485
0.006637667612
0.006636637612
0.006632492439
0.00662991511
0.006636059006
0.00663109017
0.01014117799
0.0111538973
0.01420253966
0.01481019584
0.01000054934
0.0112370977
0.03881229798
0.009957645691
0.01755408032
0.01282815606
0.01392389952
0.01413829058
0.03527890332
0.009466298743
0.01870635988
0.01150622343
0.02181887662
0.01859248148
0.9576774904
0.1222290181
0.01671816757
0.0740247225
0.02393428624
0.05171258649
0.121858156
0.01276043063
0.01569913542
0.08675919677
0.08956275878
0.1169806239
0.0999921718
0.03103223715
0.06896541811
0.01041188345
0.1354544124
0.09087390926
0.05508649495
0.006638508767
0.006637251496
0.00663618889
0.006629919073
0.006645443819
0.006643929792
0.006637163757
0.006641821376
0.00678739037
0.006637728449
0.006648312954
0.006635730979
0.006644026773
0.006630997426
0.006634466921
0.006635325559
0.006651006517
0.00663553188
0.00665836834
0.006642199225
0.006634135971
0.006641536983
0.00663117179
0.00664787876
0.01694084217
0.01498624237
0.01211686869
0.01731080016
0.01650330401
0.01645963004
0.02002698388
0.01236646091
0.01127928388
0.01945028573
0.0177130763
0.01614782689
0.01558131537
0.017435672
0.01578242559
0.01928754003
0.1154001762
0.1444299256
0.07570403307
0.05690724962
0.04012691951
0.04893200445
0.02635954768
0.126290273
0.1180140687
0.06728876785
0.02384597012
0.549888527
0.006627737833
0.006635733881
0.006632166725
0.006629935699
0.006637747476
0.006626711331
0.006637394178
0.008635142204
0.006629697798
0.006640529876
0.006631558515
0.006627420599
0.006640921123
0.006635183238
0.006644272618
0.006630832908
0.006630531774
0.006639572387
0.006641235994
0.006635186843
0.006632490336
0.006636085818
0.00663220844
0.006638749547
0.006641220595
0.006636336265
0.008591028837
0.01821049225
0.008453741368
0.01308444959
0.01143858339
0.01002497086
0.01170489283
0.008789131535
0.01382143204
0.00939761311
0.01462440716
0.01361604169
0.009070222969
0.04139254902
0.01987996729
0.09304129606
0.03892223569
0.07887248328
0.02992312713
0.02381071726
0.01968165042
0.1043889326
0.1318256794
0.04266721784
0.05320758636
0.1593350084
0.6009393876
0.9348567299
0.5189798346
0.7506446501
0.1617404278
0.0191938083
0.01841152434
0.02040264086
0.07702224518
0.02073203747
0.0205662663
0.02018962428
0.02045659139
0.02038579763
0.02013854991
0.02026615361
0.02050130318
0.01810055159
0.01869865133
0.02072605126
0.02067117921
0.4861553384
0.01998787619
0.01809296169
0.5213792625
0.894990218
0.0176198942
0.02081737996
0.02050189213
0.546396716
0.8974328714
0.02040482164
0.02025692028
0.02021511716
0.02079446504
0.02081640479
0.02079000218
0.02052353596
0.02085272135
0.02022930639
0.0208231252
0.02060174041
0.02108517577
0.02020678331
0.02033393301
0.02053514057
0.02063705583
0.02092688362
0.02043290443
0.02063834228
0.02027521886
0.02033372834
0.02021368941
0.02047232274
0.02068228468
0.02068291792
0.02023306752
0.02054435218
0.0186738326
0.01985349699
0.01815155925
0.0201934994
0.02021766158
0.020257489
0.01837955336
0.02012686894
0.01833956551
0.02020358768
0.02033012093
0.01845401406
0.01985786565
0.02031080058
0.02057303609
0.02072782502
0.0201813553
0.01987392
0.02003090744
0.02006661027
0.02020521433
0.02036645975
0.02018825134
0.02019764959
0.02052924601
0.02002876669
0.02021587643
0.02056909205
0.02017660429
0.0200374512
0.02077696376
0.02015711523
0.02058110273
0.02070430951
0.01891107109
0.01970160887
0.01871700319
0.01846903863
0.02002727883
0.02041834824
0.02034316968
0.01838062359
0.01810539271
0.01783026688
0.02010881939
0.02007843023
0.02066376344
0.01739964671
0.01972456808
0.02009280164
0.02021888518
0.01777005952
0.02022329782
0.02044827623
0.02067401724
0.02034130113
0.01966846095
0.0203977616
0.02029729205
0.02074648626
0.02013241268
0.02037074157
0.01991598213
0.02013547037
0.02022565917
0.02054027369
0.02019164916
0.01957897153
0.02026367065
0.01866566998
0.01819524222
0.394936987
0.02032052006
0.01806013615
0.02014697044
0.01862198944
0.01990853354
0.02043217033
0.01833566754
0.02073375288
0.01759537927
0.02023792371
0.05188402089
0.05396736836
0.02013972951
0.01978229545
0.01829229592
0.01776388026
0.9280565824
0.01751247863
0.01936416644
0.01992854348
0.01869084444
0.02047773689
0.02023275859
0.02022760096
0.01996608791
0.02026360647
0.02048483269
0.02014755475
0.02025660157
0.02028279627
0.02093937112
0.02008923375
0.02086069859
0.02126120144
0.02052290315
0.02086346587
0.02028543923
0.02026507596
0.02132618545
0.0204942828
0.01956158443
0.3893213178
0.02047209756
0.01989945868
0.04194579498
0.01779753362
0.02047580533
0.01838504996
0.01855626166
0.02046414452
0.01965331072
0.1901121282
0.6335802606
0.020668288
0.01825452768
0.4162892651
0.02043845096
0.7822445778
0.01963136129
0.01783979709
0.01998096159
0.02035592272
0.0185975805
0.01995214251
0.02029494199
0.02027878856
0.02048063294
0.02029171867
0.02027244751
0.01992095829
0.02094009274
0.02016569031
0.02003667452
0.01980356652
0.02011473583
0.02043327216
0.02011507268
0.02038562407
0.01960272937
0.02035787325
0.01970612137
0.0176295667
0.01802878146
0.01989880114
0.02026270453
0.01807716989
0.01926192142
0.02042135716
0.01789804086
0.01793884432
0.01966030519
0.02041795206
0.02026359401
0.02033559697
0.02057518113
0.02077219359
0.02050991357
0.01991413227
0.02055643827
0.0200684724
0.01984969961
0.02050176611
0.02005588798
0.01998408463
0.01986642688
0.02074452787
0.02030804536
0.01977351347
0.0207067944
0.0202361698
0.02063862163
0.02026627525
0.02010242491
0.01982509649
0.02030108758
0.458173576
0.01761687416
0.02046596359
0.02065503317
0.01995503522
0.02016167083
0.02007566794
0.0201237576
0.02033393332
0.01810239106
0.01781105951
0.02035760271
0.01942181056
0.02003756153
0.08569480737
0.01814024816
0.02050553119
0.01761346809
0.02014640212
0.02054941855
0.01751594556
0.02039338676
0.02003064102
0.02119150111
0.02040339136
0.02066686691
0.01778594829
0.05394458946
0.4772898395
0.02082223301
0.02052207172
0.02072032683
0.02027227697
0.0208837301
0.02051119582
0.02010672127
0.02005910439
0.0206162928
0.02016718869
0.02014820255
0.02056117459
0.02072912519
0.02015376213
0.02020975761
0.02052207273
0.02030391276
0.02114054311
0.0202494036
0.02084549239
0.02039881126
0.02094040361
0.02086266167
0.02054808897
0.02027308946
0.02039344416
0.02030441863
0.02083992036
0.02046519084
0.02029093012
0.02076216091
0.0198485215
0.02062339766
0.02033614286
0.02070197342
0.01997092353
0.01996731642
0.01903592245
0.01972514654
0.02011006007
0.2986848696
0.02034739484
0.02005471365
0.02052760297
0.01807592782
0.02025326677
0.02025222824
0.02071125058
0.02070574362
0.02067915547
0.02079449669
0.02009360877
0.02066874776
0.02036574531
0.02018805888
0.02028768692
0.02046635693
0.02049353016
0.02020919652
0.020054817
0.02054979574
0.02040380283
0.02008413888
0.01999256647
0.01992949098
0.01971777437
0.01930330196
0.02060148401
0.01836764133
0.01864315838
0.02006139606
0.02009263875
0.02010832696
0.01742183286
0.02020000885
0.01984511567
0.01977263024
0.01862357505
0.1703457362
0.02050822745
0.02009916584
0.7403054156
0.02011384876
0.0204474684
0.02056715054
0.02030632547
0.02041582433
0.02012775888
0.01997281014
0.02013947737
0.02005214971
0.01999995511
0.02011882522
0.02040272207
0.02014206968
0.0203840431
0.02006964668
0.02037250534
0.02056786722
0.02029406665
0.02023841079
0.01996171791
0.02021113957
0.02020350357
0.02021082741
0.01828676559
0.02053205697
0.01824235838
0.02047512311
0.01994846038
0.01847841009
0.02072292276
0.02056671509
0.02043116829
0.02043137087
0.02036677344
0.01771770608
0.02067538109
0.04435634988
0.02070310483
0.0178002822
0.01992453472
0.02070012839
0.02060647968
0.02062482479
0.01773152053
0.01744161587
0.02057430186
0.02013623104
0.01812897499
0.020445259
0.02053301124
0.0199788888
0.01816397655
0.02066560449
0.02070008658
0.02059834291
0.02068821309
0.02000516398
0.02029852187
0.02069423647
0.02029599804
0.02052543296
0.02109835047
0.0202711052
0.02087938151
0.02008418538
0.0207460487
0.02022355715
0.01953725865
0.02037715395
0.02072352949
0.02036061895
0.02023899888
0.01797876841
0.01780361426
0.02009526988
0.01973017058
0.08244868869
0.02043037958
0.01751437234
0.02042056604
0.01868341385
0.0203903428
0.0459691908
0.02023804851
0.02019578863
0.02083000885
0.01997236354
0.01819639571
0.01996039605
0.02061770861
0.02015201752
0.02018295725
0.02016304827
0.02004098872
0.01998363729
0.02008617781
0.02038679089
0.02004271784
0.02038266545
0.02018571763
0.02082223429
0.02051569854
0.02020250905
0.01998576037
0.02068286073
0.01911561258
0.149293556
0.8173507772
0.02040702054
0.01856886564
0.2375104779
0.02034998364
0.01992998957
0.01843568872
0.08099447445
0.0194751289
0.01988732275
0.02063716722
0.01989768354
0.8515562276
0.0178948424
0.02016012438
0.02035577865
0.02053147847
0.01994204068
0.02044742523
0.02018294128
0.01981770494
0.02043296755
0.02065086979
0.02086434694
0.02037580348
0.02035859385
0.02017601598
0.01971959807
0.02016123488
0.02061044278
0.01958498418
0.01969764206
0.01868021229
0.02080803494
0.01791301515
)


// ************************************************************************* //
