/*--------------------------------*- C++ -*----------------------------------*\
  =========                 |
  \\      /  F ield         | OpenFOAM: The Open Source CFD Toolbox
   \\    /   O peration     | Website:  https://openfoam.org
    \\  /    A nd           | Version:  7
     \\/     M anipulation  |
\*---------------------------------------------------------------------------*/
FoamFile
{
    version     2.0;
    format      ascii;
    class       scalarField;
    location    "2/lagrangian/coalCloud1";
    object      Yash(s);
}
// * * * * * * * * * * * * * * * * * * * * * * * * * * * * * * * * * * * * * //


2000
(
0.03301323931
0.03301328861
0.03301330922
0.0330132982
0.03301329617
0.03301329236
0.03301330014
0.03301326143
0.0330132781
0.03301325815
0.0330132743
0.03301325372
0.0330133048
0.03301326805
0.03301330557
0.03301331342
0.03301340196
0.03301327514
0.03301326666
0.03301329641
0.03301325812
0.0330132978
0.03301329128
0.03301334255
0.03301324227
0.03301328589
0.03301328977
0.03301325693
0.03301326808
0.03301327907
0.03301328081
0.03301328257
0.03301328923
0.03301331548
0.03301327755
0.03301325479
0.03301326481
0.03301330463
0.03301326951
0.03301326506
0.03301325161
0.03301325048
0.03301328263
0.03301328389
0.03301326504
0.0330133226
0.03301331487
0.03301328874
0.03301325139
0.03301323675
0.03301325604
0.03301327706
0.03301331719
0.03301325329
0.03301326609
0.03301326512
0.03301324205
0.03301325543
0.03301329742
0.03301326241
0.03301324689
0.0330132822
0.0330132962
0.03301327933
0.03301329038
0.0330133012
0.0330132683
0.03301335193
0.03301327075
0.03301330881
0.03301326969
0.03301329138
0.03301329772
0.03301328755
0.03301326747
0.03301324337
0.03301325939
0.0330132993
0.03301331319
0.03301331539
0.03301334424
0.03301327665
0.03301327745
0.03301335377
0.03301333281
0.033013297
0.03301337798
0.03301328296
0.03301325509
0.03301334653
0.03301327734
0.0330132883
0.03301335683
0.03301328521
0.03301327148
0.03301329832
0.0330132835
0.03301328581
0.03301328848
0.03301328481
0.03301335261
0.0330132637
0.0330132844
0.03301327526
0.0330132703
0.03301328712
0.03301328644
0.03301331716
0.03301328994
0.03301329405
0.03301333001
0.03301330223
0.03301332605
0.03301327675
0.03301329508
0.03301325694
0.03301324938
0.03301330874
0.03301328974
0.03301329771
0.03301327135
0.03301330305
0.03301326878
0.03301329439
0.03301329117
0.03301328767
0.03301329138
0.03301327505
0.03301328745
0.03301338009
0.03301331859
0.03301326262
0.03301326492
0.03301328486
0.03301327485
0.03301333432
0.03301326213
0.03301328199
0.03301322619
0.03301328222
0.03301329227
0.03301329288
0.0330132677
0.03301333996
0.03301326263
0.03301324501
0.03301330038
0.03301329412
0.03301327402
0.03301327791
0.03301330449
0.03301330339
0.03301329581
0.03301330882
0.03301332572
0.03301324609
0.03301329869
0.03301325839
0.03301328303
0.03301325202
0.03301325276
0.03301328948
0.03301329659
0.03301326831
0.03301329416
0.03301329098
0.03301332576
0.03301325732
0.03301327018
0.03301328772
0.03301328851
0.03301327971
0.0330132977
0.03301327743
0.03301328097
0.03301324625
0.03301329057
0.03301328744
0.03301327089
0.03301325943
0.03301333772
0.03301326987
0.03301327723
0.03301331502
0.03301335732
0.03301332376
0.03301328128
0.03301330779
0.03301328918
0.03301331233
0.03301325998
0.03301328184
0.03301333379
0.03301326908
0.03301332609
0.03301329875
0.03301330344
0.03301324429
0.03301328997
0.03301326704
0.03301328159
0.03301328791
0.0330132857
0.03301332301
0.03301327956
0.03301327228
0.03301328571
0.03301332666
0.03301327969
0.03301327515
0.03301326808
0.03301329433
0.0330134151
0.03301331082
0.03301332595
0.03301328604
0.03301327725
0.03301327268
0.03301325501
0.03301331506
0.03301327116
0.03301329111
0.0330132278
0.03301323192
0.03301328427
0.03301326983
0.03301324111
0.03301325669
0.03301329393
0.03301324899
0.03301330457
0.03301325792
0.03301328192
0.03301330511
0.03301329276
0.03301324228
0.03301325673
0.03301330125
0.03301327909
0.03301325956
0.03301324688
0.03301326609
0.03301324416
0.0330132549
0.0330132477
0.03301326748
0.03301324487
0.03301325842
0.03301325387
0.03301326492
0.03301324033
0.03301335931
0.03301328214
0.03301324444
0.03301325236
0.03301325318
0.03301332088
0.0330132538
0.03301324835
0.03301324884
0.03301324601
0.03301325542
0.03301326224
0.0330132803
0.0330132488
0.03301330352
0.0330132583
0.03301325475
0.03301335966
0.03301324239
0.03301327851
0.03301329133
0.0330132682
0.0330133071
0.03301327867
0.03301334074
0.03301327607
0.0330132872
0.03301330503
0.03301332829
0.03301331136
0.03301329903
0.033013318
0.03301329437
0.03301330804
0.03301329893
0.0330133735
0.03301326235
0.03301331568
0.03301331963
0.03301329873
0.03301328498
0.03301325427
0.03301328695
0.03301330604
0.0330133044
0.03301330028
0.033013288
0.03301330634
0.03301333158
0.03301330858
0.03301337035
0.03301325012
0.03301328321
0.03301327356
0.03301330193
0.0330132594
0.03301327908
0.03301332532
0.03301328204
0.03301331902
0.0330133083
0.03301328013
0.03301326624
0.03301328728
0.03301328607
0.03301330781
0.03301328152
0.0330133388
0.0330132466
0.03301330132
0.03301331125
0.03301328634
0.0330132688
0.03301330683
0.03301328061
0.03301332928
0.03301325839
0.0330133078
0.03301325334
0.03301335946
0.03301330456
0.03301329769
0.03301327454
0.033013274
0.03301326262
0.03301334475
0.03301326019
0.03301326615
0.03301327375
0.03301326549
0.03301328049
0.03301330603
0.03301346561
0.03301336371
0.03301334481
0.03301329585
0.03301329571
0.03301328778
0.03301330362
0.03301331475
0.03301327081
0.03301328592
0.0330132871
0.03301327245
0.03301330277
0.03301328308
0.03301328613
0.03301330264
0.03301322419
0.03301330507
0.03301329434
0.03301332148
0.03301324487
0.03301324784
0.0330133193
0.03301331927
0.03301330478
0.03301329405
0.03301329314
0.03301329444
0.03301331094
0.03301325356
0.03301331672
0.03301324526
0.03301327302
0.03301325292
0.03301331929
0.03301336909
0.03301332381
0.03301330493
0.03301328017
0.03301328759
0.03301329641
0.03301326187
0.03301328504
0.03301329306
0.03301337032
0.03301332332
0.03301329236
0.03301324513
0.03301325894
0.0330133563
0.03301326393
0.03301326029
0.03301331303
0.03301325473
0.03301330265
0.0330132936
0.0330133004
0.03301328922
0.03301328171
0.03301326066
0.03301327518
0.03301333267
0.03301331508
0.03301327231
0.03301325619
0.03301326649
0.03301329489
0.03301329702
0.03301335182
0.03301325844
0.03301327504
0.03301325698
0.0330132695
0.03301325695
0.03301328913
0.03301333282
0.03301329799
0.0330132509
0.03301326615
0.03301323927
0.03301328097
0.0330132556
0.03301328659
0.03301326095
0.03301323814
0.03301332462
0.03301327557
0.03301331283
0.03301329292
0.03301326021
0.03301325872
0.03301324781
0.03301328901
0.03301325474
0.0330133288
0.03301331103
0.0330132889
0.03301326879
0.03301330589
0.03301328428
0.03301327793
0.03301332122
0.03301326326
0.03301325473
0.03301329267
0.03301327792
0.0330132979
0.03301329309
0.03301330575
0.03301325579
0.03301325788
0.03301328708
0.03301331104
0.03301327305
0.03301331555
0.03301326437
0.03301332472
0.03301327865
0.03301327089
0.03301327548
0.03301332704
0.0330132691
0.03301329886
0.03301328167
0.03301330516
0.03301331425
0.03301329619
0.03301332287
0.03301332097
0.03301335969
0.03301325234
0.0330132728
0.03301330401
0.03301327391
0.03301326836
0.03301329193
0.0330132927
0.03301327782
0.03301330846
0.03301329006
0.03301326086
0.03301333207
0.03301329327
0.03301333088
0.0330132694
0.03301326472
0.03301331752
0.03301330532
0.03301330821
0.03301326993
0.03301330096
0.03301327357
0.03301328162
0.03301329425
0.03301326551
0.03301323599
0.0330133507
0.03301331949
0.03301323504
0.03301332557
0.03301333016
0.03301329125
0.03301328324
0.03301328773
0.0330132594
0.03301327496
0.03301328736
0.03301327557
0.03301328229
0.03301330813
0.03301329251
0.03301329768
0.03301327809
0.03301332651
0.03301329052
0.03301327532
0.03301331898
0.03301332569
0.03301334176
0.03301334301
0.03301326852
0.03301327569
0.03301332032
0.03301332619
0.03301328197
0.03301337033
0.03301332673
0.03301336558
0.03301327625
0.03301329203
0.03301330083
0.03301329669
0.03301330993
0.03301326776
0.0330133047
0.03301326911
0.03301326401
0.03301327948
0.03301327835
0.03301325283
0.0330132916
0.03301326791
0.03301327965
0.0330132963
0.03301326399
0.0330133038
0.03301327067
0.03301329579
0.03301327727
0.03301329337
0.03301331054
0.03301327576
0.0330132895
0.03301325542
0.03301323343
0.03301326276
0.03301329062
0.03301323263
0.03301328259
0.03301327973
0.03301328276
0.0330133669
0.03301329886
0.03301335942
0.03301332608
0.03301324979
0.03301330997
0.03301328533
0.03301331727
0.03301324997
0.03301328253
0.03301328756
0.03301330904
0.03301331669
0.03301326833
0.03301328998
0.0330154335
0.03301332667
0.03301327038
0.03301338461
0.03301332382
0.03301330726
0.03301331245
0.03301331658
0.03301324909
0.03301330763
0.03301328089
0.03301326485
0.0330133038
0.03301328223
0.03301326212
0.03301331217
0.03301332614
0.03301326653
0.03301330083
0.03301327172
0.03301329218
0.03301330038
0.03301330774
0.03301328775
0.03301328472
0.03301325119
0.033013254
0.03301330664
0.03301330434
0.0330133269
0.03301325309
0.03301323324
0.03301327357
0.03301326187
0.03301330464
0.03301324341
0.0330132682
0.03301328626
0.03301328467
0.03301325471
0.03301327257
0.03301329355
0.03301326591
0.03301328431
0.03301324607
0.03301323624
0.03301329111
0.03301326356
0.03301329249
0.03301327744
0.03301327047
0.03301324873
0.03301329486
0.03301329014
0.03301331315
0.03301326526
0.03301329233
0.03301328348
0.03301326939
0.0330132869
0.03301327959
0.03301329076
0.0330132437
0.0330132516
0.03301327871
0.0330132626
0.03301328666
0.0330132848
0.03301331683
0.033013262
0.03301328426
0.03301326011
0.03301325679
0.03301325145
0.03301327011
0.0330133034
0.0330132484
0.03301327386
0.03301329955
0.03301325238
0.03301333529
0.03301329
0.03301332095
0.033013244
0.03301327828
0.03301326546
0.03301328158
0.03301329595
0.03301360863
0.03301328456
0.03301328576
0.03301328434
0.03301331414
0.03301325977
0.03301327088
0.03301331658
0.03301328095
0.0330133037
0.0330132605
0.03301331041
0.03301330445
0.03301335714
0.03301329647
0.03301333039
0.03301327738
0.03301329949
0.03301329924
0.03301327389
0.03301324107
0.03301327883
0.0330133176
0.03301326393
0.03301331011
0.03301328244
0.03301329071
0.03301324811
0.03301330671
0.03301325475
0.03301331201
0.03301330104
0.03301333369
0.03301331306
0.03301324648
0.03301325606
0.03301332071
0.03301328614
0.03301330244
0.03301330178
0.03301329907
0.03301337891
0.03301326307
0.03301330798
0.033013301
0.03301326641
0.03301330686
0.03301330894
0.03301326679
0.03301326658
0.0330133143
0.03301329964
0.03301338645
0.03301331527
0.03301328807
0.03301325718
0.03301332226
0.03301327349
0.03301332865
0.0330132579
0.0330133031
0.03301330633
0.03301330905
0.03301329782
0.03301329887
0.03301327648
0.03301329328
0.03301332978
0.03301331894
0.03301326998
0.03301332536
0.03301332917
0.03301326106
0.03301326556
0.03301328941
0.03301326311
0.0330132635
0.03301325885
0.03301329076
0.03301327194
0.03301330461
0.03301326214
0.03301328069
0.033013306
0.03301327132
0.03301324522
0.03301328114
0.03301329154
0.03301327521
0.03301326931
0.03301330621
0.03301332516
0.03301329035
0.03301328407
0.0330132947
0.03301331745
0.03301327907
0.03301326519
0.03301326092
0.03301328635
0.03301326168
0.0330133501
0.0330133103
0.03301327184
0.03301329802
0.0330132874
0.03301334294
0.03301328606
0.0330132794
0.03301327238
0.03301330412
0.03301326176
0.03301327226
0.03301327404
0.03301324761
0.03301326306
0.0330132724
0.03301326032
0.03301330058
0.03301332863
0.03301325902
0.03301333307
0.03301328252
0.03301332429
0.03301330356
0.03301329487
0.03301326333
0.03301334177
0.0330133109
0.0330133013
0.03301333765
0.03301327042
0.03301330271
0.03301332041
0.03301330347
0.03301333741
0.03301327305
0.03301326974
0.03301342754
0.03301328526
0.03301329612
0.03301331425
0.03305703975
0.03304848951
0.03305438224
0.03308886629
0.03306446829
0.03304207951
0.03303759201
0.03304526333
0.03304365047
0.03304161555
0.03304645862
0.03303732296
0.03303611665
0.03302331669
0.03303781737
0.0330414326
0.03303644502
0.03304282526
0.03310855321
0.03328955079
0.03327671418
0.03362743099
0.03331256997
0.03359861578
0.03305080506
0.03340498083
0.03321255891
0.03306976785
0.03328028424
0.03321933815
0.03366083994
0.03325379007
0.03309174418
0.03322724946
0.03302090289
0.03301329773
0.03301329993
0.03301332454
0.03301331408
0.03301332265
0.03301325444
0.03301332767
0.03301327206
0.03301483076
0.03301327314
0.0330133327
0.03301330252
0.03301332785
0.03301338044
0.03301333241
0.0330133389
0.03301330044
0.03301330674
0.03301332328
0.03301330123
0.03301326839
0.03301328745
0.03301330948
0.03301328959
0.03301327359
0.03301331527
0.03301330395
0.03304743632
0.03304286961
0.03303224791
0.03304619113
0.03306350789
0.03305920084
0.03303029149
0.03306160422
0.03305795744
0.03303133003
0.0330516484
0.033050706
0.03309066975
0.03317337095
0.0333468663
0.03362675793
0.03346786253
0.03312411843
0.03361950277
0.03366675708
0.03373886722
0.03350680884
0.1133406729
0.03342033533
0.033162636
0.03301331328
0.03301338894
0.03301334924
0.03301335921
0.03301328677
0.03301333877
0.03301326149
0.03301328454
0.03301326434
0.03301326253
0.03301336227
0.0330132868
0.03301334197
0.03301331976
0.0330133674
0.03301330613
0.03301328267
0.03301329689
0.03303399996
0.03301333753
0.03301325086
0.03301335747
0.03301329128
0.03301341146
0.03301327042
0.0330133832
0.03305219316
0.03304537746
0.03308784555
0.03305212977
0.03305198021
0.03302728313
0.03304886489
0.03303841627
0.03302444451
0.03303940375
0.03317988447
0.03356268518
0.03357411653
0.03346283186
0.0334464299
0.03303139595
0.0331252795
0.03307126147
0.03336966764
0.03313441001
0.03312403056
0.03309149806
0.03333098265
0.0331043637
0.05779700971
0.1851156777
0.06056947645
0.09770223256
0.06649327753
0.1553532555
0.03376538455
0.1024431403
0.03701891325
0.07931525987
0.03309190419
0.03301330036
0.03301327088
0.03301329302
0.03301327138
0.03301331486
0.03301326349
0.03301331828
0.03301328703
0.03301329219
0.03301328547
0.0330133066
0.03301326482
0.03301330643
0.03301327861
0.03301328204
0.03301325368
0.03301329456
0.03301346527
0.03301329528
0.03301328
0.03301327241
0.03301327456
0.03301331433
0.03301327321
0.03301327076
0.03301325945
0.03301331039
0.03301327869
0.03301333475
0.0330132948
0.03301332218
0.03301328457
0.033013285
0.03301329741
0.03301328355
0.03301337596
0.03301334166
0.03301329464
0.0330874998
0.03304184006
0.03303554823
0.03303545006
0.03308162011
0.03308832875
0.03304113143
0.03303615274
0.03302771169
0.0330367119
0.03316250474
0.0330531224
0.03305289881
0.03305688293
0.03306233134
0.03304758038
0.03305357042
0.03304144601
0.03305496309
0.03305013534
0.03304109925
0.03310272178
0.03361272881
0.0334129203
0.03363649602
0.03341339505
0.03306183504
0.0331590129
0.03354803936
0.03332130761
0.03348907054
0.03303936861
0.03305018192
0.03352651864
0.03349819928
0.03354228554
0.03359776907
0.03340366575
0.0336220317
0.0330132608
0.03301475781
0.03301327804
0.03301326517
0.03301326315
0.03301332276
0.03301945538
0.03301327327
0.03301335523
0.03301335856
0.03301331822
0.03301339485
0.03301935342
0.03301329042
0.03301331394
0.03301330587
0.03301332582
0.03301330008
0.03301330938
0.03301327849
0.03301331811
0.03301335176
0.03301333299
0.03301333105
0.033013327
0.03305254753
0.03302699178
0.03303152318
0.03303043787
0.03303065835
0.03302753963
0.03303149776
0.0330503812
0.03303780518
0.03303544779
0.03304432142
0.03346008251
0.03333120724
0.03337555427
0.03340081389
0.03314829299
0.03344506403
0.03314761207
0.03325206873
0.03303862608
0.0332006322
0.03303365586
0.03306360684
0.1702653665
0.03324481559
0.03301325878
0.0330133191
0.03301337764
0.03301327546
0.03301334794
0.03301330248
0.0330133145
0.03301333599
0.03301335719
0.03301333643
0.03301350277
0.03301327929
0.03301325235
0.03301325636
0.03301327596
0.03301331133
0.03301328095
0.03301335639
0.03301331538
0.03301334407
0.03301329805
0.03301335384
0.03301326602
0.0330133609
0.03301332623
0.03304799577
0.03304442521
0.03302776992
0.03304629665
0.03304606365
0.03302736753
0.03304863119
0.03304482347
0.03304642403
0.03303320294
0.03303868866
0.03305302182
0.0336020777
0.03337985407
0.03335528399
0.03319489357
0.0333201135
0.03329061024
0.03307170374
0.03307106798
0.03323389881
0.03360911532
0.03337595657
0.03353170758
0.03307652119
0.03360179852
0.1652774154
0.1298088706
0.03301330768
0.0330132878
0.03301329793
0.0330132833
0.03301330193
0.03301328366
0.03301336081
0.03301335481
0.03301331618
0.03301326164
0.03301329658
0.03301328952
0.03301326939
0.03301326183
0.03301331343
0.0330132972
0.03301328215
0.03301334222
0.03301354137
0.03301331065
0.03301331127
0.03301338334
0.0330132729
0.03301327466
0.03301327425
0.03301328784
0.03301331348
0.0330133216
0.03301329984
0.03301331389
0.03301331854
0.03301326624
0.03301330278
0.03307041768
0.03304979504
0.03306723854
0.03304719132
0.03306539777
0.03306674239
0.03304276799
0.03304021602
0.03304637129
0.03326420082
0.03304686197
0.03308180239
0.03307824808
0.03307049548
0.03306926075
0.03303097382
0.0330850948
0.03308569603
0.03306569037
0.03303302235
0.03323753384
0.03356935809
0.03309964875
0.03305634498
0.1015093835
0.03345676144
0.03348824329
0.03311185779
0.03354848478
0.03325380757
0.03316371142
0.03360743057
0.03309771277
0.03347399439
0.03335840478
0.03309419951
0.03301333443
0.03301331579
0.03301332143
0.03301327771
0.03301334176
0.03301326332
0.03301858824
0.03301333709
0.03301333814
0.03302126985
0.03301326714
0.03301338465
0.03301330764
0.03301339889
0.03305048164
0.03301335022
0.03301332892
0.03301331382
0.03301334947
0.0330132694
0.0330134487
0.03301329277
0.03301330595
0.033013369
0.03301328618
0.03301336702
0.03301336737
0.03301337001
0.03307302259
0.03303150445
0.0330744797
0.03306981898
0.03303968576
0.03303887497
0.03304015476
0.03308279764
0.03304330955
0.03304799396
0.1051516878
0.0332709365
0.03345384737
0.05432871392
0.03304150542
0.03360198435
0.03305750575
0.03319374465
0.04543380402
0.03327150009
0.03307530876
0.03364578869
0.03357018707
0.03301329163
0.03301772923
0.03301334453
0.03301327175
0.03301334453
0.03301328905
0.03301332872
0.03301326768
0.03301338269
0.03301332221
0.03301335859
0.0330133135
0.03301335852
0.03301332241
0.03301333811
0.03301331315
0.0330133336
0.0330133312
0.03301330629
0.03301330805
0.03301337537
0.03301337326
0.03301330325
0.03301334463
0.03301332344
0.03301329499
0.03301335966
0.03301330994
0.03306398955
0.03306070727
0.03304371325
0.03305150013
0.03310760406
0.03310880721
0.03305199473
0.03312392438
0.03311520803
0.03302576358
0.03303785917
0.03306636131
0.03301488401
0.03303887316
0.03303485323
0.03326295251
0.03307754803
0.0337440392
0.03310967443
0.03342727362
0.03351495996
0.03318208085
0.0331204414
0.03344522411
0.03304372372
0.03338146809
0.05210396052
0.03646017105
0.1171485283
0.07017100943
0.06494384244
0.03982387651
0.04426606068
0.03390062968
0.03971173359
0.08605609403
0.04320247177
0.0340705048
0.1125226515
0.03301337533
0.0330133228
0.03301331964
0.03301334304
0.03301330663
0.03301328236
0.03301326805
0.0330132546
0.03301328758
0.03301330448
0.03301330549
0.03301326642
0.03301325505
0.03301326393
0.03301327555
0.03301326889
0.03301330467
0.03301326639
0.03301327672
0.03301325944
0.03301331697
0.03301337608
0.03301327457
0.03301333254
0.0330132836
0.03301327215
0.03301330759
0.03301339465
0.0330132615
0.03301329684
0.03301334043
0.03301331163
0.03301330632
0.03301328493
0.03301327164
0.03301330333
0.03301327769
0.03303138973
0.03303661627
0.03305234717
0.03305548265
0.03303066405
0.0330370456
0.03317933736
0.03303044215
0.03306963792
0.03304524919
0.03305090786
0.03305201404
0.03316110301
0.03302790659
0.0330755854
0.03303843385
0.03309164839
0.03307499782
0.03792476664
0.03360981039
0.03306531031
0.03336104877
0.03310256572
0.03324591004
0.03360789737
0.03304490478
0.03306006821
0.03342674587
0.03344121745
0.03358270978
0.03349507561
0.03313919054
0.03333492255
0.03303278626
0.0336780368
0.03344798961
0.03326332916
0.03301331598
0.03301330948
0.033013304
0.03301327165
0.03301335177
0.03301334396
0.03301330903
0.03301333308
0.03301408436
0.03301331195
0.03301336657
0.03301330164
0.03301334445
0.03301327721
0.03301329511
0.03301329954
0.03301338047
0.03301330061
0.03301341847
0.03301333501
0.0330132934
0.0330133316
0.03301327811
0.03301336434
0.03306647847
0.03305639262
0.03304158546
0.03306838752
0.03306422081
0.03306399542
0.03308240416
0.03304287334
0.0330372603
0.03307942759
0.03307046012
0.03306238692
0.03305946343
0.03306903272
0.0330605012
0.03307858836
0.03357456226
0.03372437688
0.03336971262
0.03327270625
0.03318611801
0.03323155352
0.03311508959
0.03363074651
0.03358805629
0.03332628886
0.03310211645
0.0989825134
0.03301326039
0.03301330166
0.03301328324
0.03301327174
0.03301331204
0.0330132551
0.03301331023
0.03302362059
0.0330132705
0.03301332641
0.03301328011
0.03301325876
0.03301332842
0.03301329882
0.03301334571
0.03301327636
0.03301327481
0.03301332146
0.03301333005
0.03301329884
0.03301328492
0.03301330347
0.03301328346
0.03301331722
0.03301332996
0.03301330477
0.03302339114
0.03307302671
0.03302268276
0.03304657714
0.03303808349
0.03303079028
0.03303945754
0.03302441335
0.03305038036
0.03302755309
0.0330545237
0.03304932053
0.03302586367
0.03319264483
0.03308164415
0.03345915399
0.03317989974
0.03338606884
0.03313346735
0.03310192505
0.03308061908
0.03351772929
0.03365935247
0.03319922844
0.03325361851
0.1614303375
0.08683856463
0.0408172464
0.03776429192
0.06559157391
0.03381368413
0.1973279636
0.189284564
0.2097545259
0.1651907098
0.2131376504
0.2114281491
0.2075646774
0.2103124018
0.2095768021
0.2070462379
0.2083529119
0.2107773141
0.1860933769
0.1922441553
0.2130846644
0.212512234
0.1006050962
0.2054837938
0.1860171791
0.09748921163
0.04625605217
0.1811507863
0.2140251235
0.2107787947
0.09788095543
0.0465992895
0.2097689193
0.2082474987
0.207825978
0.2137744562
0.2140132156
0.213729656
0.2109964144
0.2143868209
0.2079712632
0.2140851344
0.2118038456
0.216769274
0.2077360735
0.2090534681
0.2111222899
0.2121723048
0.2151529672
0.210059407
0.2121809564
0.2084486433
0.2090495486
0.2078092864
0.2104657033
0.2126373723
0.2126369329
0.208013778
0.2112047218
0.1919883235
0.2041097621
0.1866180047
0.2076035855
0.2078498083
0.2082666798
0.1889631232
0.2069224595
0.1885463201
0.2077116984
0.2090088194
0.1897261678
0.2041577815
0.2088174003
0.211500318
0.2131036357
0.2074756357
0.2043202094
0.2059354711
0.2062955138
0.2077318682
0.2093903035
0.2075583708
0.2076408231
0.2110641832
0.2059107722
0.2078425022
0.2114679256
0.2074289209
0.2059960152
0.2135997387
0.2072258714
0.2115963151
0.2128526971
0.1944206607
0.2025474886
0.1924310063
0.1898793484
0.2058972473
0.2099246158
0.2091464303
0.1889644323
0.1861413903
0.1833135213
0.2067392889
0.2064252695
0.2124361413
0.1788826232
0.202786268
0.2065707811
0.2078710416
0.1826900317
0.2079149113
0.2102219875
0.2125479825
0.2091228047
0.2022074675
0.209698208
0.2086747564
0.2132873966
0.2069667649
0.2094304491
0.2047461061
0.2070164595
0.2079313589
0.2111739564
0.2075791073
0.2012876857
0.2083281469
0.1919012803
0.1870634382
0.1156921968
0.208915766
0.1856799237
0.2071213839
0.1914522948
0.2046730759
0.2100592315
0.1885113736
0.2131605439
0.1809010522
0.208062883
0.1734057131
0.1699660743
0.2070541205
0.2033831452
0.1880603297
0.1826315161
0.04414253888
0.1800480072
0.1990826555
0.2048865676
0.1921614886
0.2105272848
0.2080102357
0.2079547417
0.2052630931
0.208323756
0.2105997438
0.207134686
0.2082578667
0.2085257365
0.2152808681
0.2065272297
0.2144548163
0.2185871257
0.2109900164
0.2144987456
0.208550688
0.2083469019
0.2192412651
0.2107002014
0.2011168071
0.1125092176
0.2104629994
0.2045836879
0.1756247346
0.1829711531
0.2105022933
0.1890166798
0.1907778561
0.2103944634
0.2020517462
0.1449346031
0.0802232055
0.2124942039
0.1876774556
0.1157678782
0.2101237323
0.06107696827
0.201833684
0.1834117321
0.2054170566
0.2092675046
0.1912010566
0.2051224423
0.2086399914
0.2084832794
0.2105493046
0.2086187764
0.2084183276
0.2048036194
0.2152853687
0.2073111045
0.2059971197
0.2035953986
0.2068001016
0.2100745472
0.2067907133
0.2095734476
0.2015354223
0.2092993416
0.202601032
0.181247888
0.1853528
0.2045753462
0.208312857
0.1858500706
0.1980250104
0.2099539211
0.1840112486
0.1844249699
0.2021165301
0.2099124722
0.2083204655
0.209065644
0.2115270721
0.2135599235
0.2108639277
0.2047314987
0.2113446641
0.20631978
0.2040732042
0.2107763501
0.2061911257
0.2054487321
0.2042350231
0.2132776126
0.2087825833
0.2032945703
0.2128752845
0.2080449837
0.2121825507
0.2083599172
0.2066681031
0.2038195116
0.2087188705
0.107949901
0.1811180289
0.2104002391
0.2123437491
0.2051478921
0.2072803467
0.2063888367
0.2068865463
0.2090406625
0.1861138209
0.1831155245
0.20929399
0.1996726619
0.2059984586
0.1630856151
0.1865012726
0.2108063077
0.1810874369
0.2071222843
0.2112593992
0.1800837088
0.2096653963
0.2059361731
0.217870402
0.2097574964
0.2124711355
0.1828554602
0.1710773861
0.1038865281
0.2140623981
0.2109895559
0.213028114
0.2084060834
0.2146971712
0.2108753117
0.206719954
0.2062267876
0.2119547215
0.2073381233
0.2071354593
0.211382034
0.2131121701
0.2071934511
0.2077689048
0.2109807919
0.2087416762
0.2173470577
0.2081813706
0.214314061
0.2097215856
0.2152880828
0.2144793876
0.2112409781
0.2084248377
0.2096523823
0.2087425911
0.2142433889
0.2103983698
0.208610772
0.2134471638
0.2040526492
0.2120258011
0.2090797562
0.2128281246
0.2053156512
0.2052805147
0.1957110543
0.2027985313
0.2067518654
0.1282394457
0.2091939147
0.2061834473
0.2110340947
0.185834192
0.2082192084
0.2082133862
0.212927018
0.2128713156
0.21259055
0.2137802749
0.2065740966
0.212489233
0.209367299
0.2075384084
0.2085691875
0.2104059877
0.2106888019
0.2077679883
0.2061762039
0.2112753368
0.2097735078
0.2064727391
0.205533988
0.2048873649
0.2027103172
0.198452509
0.2118044294
0.1888411007
0.1916696775
0.2062531741
0.2065723233
0.2067295153
0.1791162794
0.2076658885
0.2040169434
0.2032868339
0.191466921
0.1482851587
0.2108376655
0.2066352687
0.06597777338
0.2067941361
0.2102132204
0.2114540508
0.2087641173
0.209886634
0.2069321023
0.205331406
0.2070438248
0.2061549088
0.2056164428
0.2068342386
0.2097531693
0.2070798581
0.2095686188
0.2063317338
0.2094414858
0.2114445466
0.2086347778
0.2080688869
0.2052207687
0.2077900088
0.2077054942
0.2077826954
0.1880000537
0.2110814312
0.1875502549
0.2105073031
0.2050904577
0.1899785451
0.2130503842
0.2114412042
0.2100443216
0.210049685
0.2093870112
0.1821575977
0.2125627443
0.1733192536
0.2128463557
0.183005774
0.2048381356
0.212813698
0.2118446707
0.2120394757
0.1822974652
0.1793157343
0.2115237662
0.2070184479
0.1863805848
0.2102001189
0.211091096
0.2053924331
0.1867444327
0.2124526785
0.2128071344
0.2117645792
0.2126971352
0.2056696866
0.2086818613
0.2127499584
0.2086492782
0.2110209059
0.2169087038
0.2083965648
0.2146525409
0.2064770368
0.2132764955
0.2079115238
0.200853951
0.2094903479
0.2130576034
0.2093214174
0.208072786
0.1848406087
0.1830383241
0.2065924284
0.2028434892
0.1679358983
0.210032275
0.1800657063
0.2099420002
0.1920830584
0.2096218896
0.1714040017
0.2080695535
0.2076298721
0.2141393534
0.2053393082
0.1870761317
0.2052150882
0.2119566485
0.2071708824
0.2075043277
0.2072950414
0.2060330321
0.2054510578
0.2064996859
0.2095993449
0.2060559292
0.2095469737
0.2075182443
0.2140707309
0.2109173254
0.2076972397
0.2054709169
0.2126363763
0.1965254182
0.1545108863
0.05367284371
0.2098021244
0.1909012853
0.1390311392
0.2092212336
0.2048958878
0.1895372997
0.166282328
0.2002282117
0.2044536527
0.2121690299
0.2045573915
0.05006226442
0.1839768608
0.2072544139
0.2092768027
0.2110773784
0.2050170129
0.2102103728
0.207490098
0.2037342232
0.210062072
0.2123090159
0.2144983925
0.2094841092
0.209310484
0.2074199409
0.2027272423
0.2072755778
0.2118879509
0.2013554579
0.2025131926
0.1920455937
0.2139194782
0.1841593668
)


// ************************************************************************* //
