/*--------------------------------*- C++ -*----------------------------------*\
  =========                 |
  \\      /  F ield         | OpenFOAM: The Open Source CFD Toolbox
   \\    /   O peration     | Website:  https://openfoam.org
    \\  /    A nd           | Version:  7
     \\/     M anipulation  |
\*---------------------------------------------------------------------------*/
FoamFile
{
    version     2.0;
    format      ascii;
    class       scalarField;
    location    "2/lagrangian/coalCloud1";
    object      YC(s);
}
// * * * * * * * * * * * * * * * * * * * * * * * * * * * * * * * * * * * * * //


2000
(
0.001730082539
0.001730071357
0.001730066671
0.001730069176
0.001730069635
0.001730070508
0.001730068737
0.001730077514
0.001730073731
0.001730078262
0.001730074602
0.001730079271
0.001730067683
0.00173007602
0.001730067508
0.00173006572
0.001730045633
0.001730074412
0.001730076337
0.001730069581
0.001730078272
0.001730069262
0.001730070745
0.00173005911
0.001730081875
0.001730071965
0.001730071092
0.001730078547
0.001730076017
0.001730073519
0.00173007313
0.001730072726
0.001730071215
0.001730065252
0.001730073858
0.001730079031
0.00173007675
0.001730067715
0.00173007569
0.001730076701
0.001730079749
0.001730080011
0.00173007271
0.001730072422
0.001730076702
0.001730063642
0.001730065394
0.001730071326
0.001730079802
0.001730083129
0.001730078742
0.001730073972
0.00173006487
0.00173007937
0.001730076462
0.001730076679
0.001730081922
0.001730078884
0.00173006935
0.001730077302
0.001730080823
0.001730072808
0.001730069625
0.001730073456
0.001730070949
0.001730068497
0.001730075958
0.001730056978
0.001730075417
0.001730066772
0.001730075641
0.001730070726
0.001730069287
0.001730071602
0.001730076156
0.00173008162
0.001730077986
0.001730068931
0.001730065781
0.001730065277
0.001730058727
0.001730074069
0.001730073885
0.001730056569
0.001730061321
0.001730069441
0.001730051077
0.001730072631
0.001730078966
0.001730058204
0.001730073911
0.001730071419
0.001730055872
0.001730072129
0.00173007524
0.001730069145
0.001730072513
0.001730071983
0.00173007139
0.00173007222
0.001730056829
0.001730077003
0.001730072308
0.001730074384
0.001730075515
0.001730071688
0.001730071845
0.001730064872
0.001730071047
0.001730070126
0.001730061957
0.001730068263
0.001730062851
0.001730074046
0.001730069883
0.001730078537
0.001730080252
0.001730066782
0.001730071103
0.001730069288
0.001730075277
0.001730068082
0.001730075851
0.001730070037
0.001730070773
0.00173007157
0.001730070724
0.001730074433
0.001730071619
0.001730050586
0.00173006455
0.00173007725
0.001730076736
0.001730072198
0.00173007447
0.001730060985
0.001730077356
0.001730072855
0.001730085519
0.001730072801
0.001730070523
0.001730070379
0.001730076101
0.001730059699
0.001730077249
0.00173008124
0.001730068681
0.001730070103
0.001730074669
0.001730073778
0.001730067756
0.001730068008
0.001730069717
0.001730066758
0.001730062924
0.001730081004
0.001730069072
0.001730078215
0.00173007262
0.001730079653
0.001730079494
0.001730071155
0.001730069536
0.001730075956
0.001730070091
0.001730070815
0.001730062933
0.001730078459
0.001730075532
0.001730071545
0.001730071373
0.001730073376
0.001730069288
0.001730073885
0.00173007309
0.001730080961
0.001730070911
0.001730071619
0.001730075372
0.001730077975
0.001730060204
0.001730075606
0.001730073935
0.001730065365
0.001730055758
0.001730063372
0.001730073013
0.001730067003
0.001730071224
0.001730065977
0.001730077848
0.001730072893
0.001730061097
0.00173007579
0.001730062849
0.001730069047
0.001730067987
0.001730081414
0.001730071045
0.001730076244
0.001730072952
0.001730071516
0.001730072012
0.001730063545
0.001730073406
0.001730075064
0.001730072011
0.001730062721
0.001730073379
0.001730074408
0.001730076012
0.001730070057
0.001730042646
0.001730066313
0.001730062886
0.00173007194
0.001730073924
0.00173007497
0.001730078974
0.001730065352
0.001730075308
0.001730070788
0.001730085151
0.001730084223
0.001730072337
0.00173007562
0.001730082132
0.001730078601
0.001730070145
0.001730080342
0.001730067729
0.001730078318
0.001730072872
0.001730067607
0.001730070417
0.001730081868
0.001730078586
0.00173006849
0.001730073521
0.001730077946
0.001730080825
0.001730076472
0.001730081443
0.001730079005
0.001730080634
0.001730076146
0.001730081281
0.001730078198
0.001730079236
0.001730076728
0.001730082309
0.001730055312
0.001730072818
0.001730081373
0.001730079582
0.001730079395
0.001730064026
0.001730079251
0.001730080488
0.00173008038
0.001730081026
0.001730078887
0.001730077343
0.001730073242
0.001730080385
0.001730067971
0.001730078231
0.001730079038
0.001730055233
0.001730081844
0.001730073645
0.001730070741
0.001730075982
0.001730067162
0.00173007361
0.001730059525
0.001730074199
0.001730071671
0.001730067619
0.001730062347
0.001730066193
0.001730068989
0.00173006469
0.001730070046
0.001730066938
0.001730069016
0.00173005209
0.001730077309
0.001730065206
0.001730064314
0.001730069057
0.001730072178
0.001730079142
0.001730071734
0.001730067402
0.001730067765
0.001730068704
0.001730071495
0.001730067333
0.001730061601
0.001730066824
0.001730052802
0.001730080085
0.001730072586
0.00173007477
0.001730068331
0.001730077981
0.001730073511
0.001730063023
0.001730072848
0.001730064454
0.001730066889
0.00173007328
0.001730076429
0.001730071651
0.001730071925
0.001730066999
0.001730072966
0.001730059957
0.001730080882
0.001730068472
0.001730066218
0.001730071871
0.001730075852
0.001730067221
0.001730073167
0.001730062121
0.001730078215
0.001730067006
0.001730079351
0.001730055278
0.001730067735
0.001730069292
0.001730074548
0.001730074671
0.001730077258
0.001730058613
0.001730077805
0.001730076446
0.001730074731
0.001730076604
0.0017300732
0.001730067395
0.001730031188
0.001730054318
0.0017300586
0.00173006971
0.001730069744
0.001730071535
0.001730067941
0.001730065421
0.001730075392
0.001730071959
0.001730071688
0.00173007503
0.001730068144
0.001730072615
0.001730071916
0.001730068172
0.001730085975
0.001730067618
0.001730070048
0.001730063893
0.001730081271
0.001730080607
0.001730064388
0.001730064389
0.001730067681
0.001730070116
0.001730070323
0.001730070033
0.001730066285
0.001730079304
0.001730064978
0.001730081195
0.001730074893
0.001730079452
0.00173006439
0.001730053085
0.001730063364
0.001730067652
0.001730073271
0.001730071585
0.001730069586
0.001730077428
0.001730072165
0.001730070337
0.001730052806
0.001730063468
0.001730070503
0.001730081217
0.001730078087
0.001730055991
0.001730076948
0.001730077782
0.00173006581
0.001730079042
0.001730068171
0.00173007022
0.001730068674
0.00173007122
0.001730072923
0.001730077691
0.001730074394
0.001730061355
0.001730065345
0.001730075051
0.001730078709
0.001730076374
0.001730069931
0.001730069452
0.001730057004
0.001730078202
0.001730074438
0.001730078538
0.001730075687
0.001730078539
0.001730071235
0.00173006132
0.001730069217
0.001730079904
0.001730076448
0.001730082547
0.001730073088
0.001730078843
0.001730071811
0.001730077633
0.001730082805
0.001730063182
0.001730074316
0.001730065857
0.001730070373
0.001730077798
0.001730078138
0.001730080611
0.001730071256
0.001730079041
0.001730062227
0.001730066257
0.001730071283
0.001730075855
0.001730067431
0.001730072338
0.001730073782
0.001730063952
0.001730077108
0.001730079039
0.001730070431
0.001730073783
0.001730069243
0.001730070333
0.001730067465
0.001730078798
0.001730078325
0.001730071701
0.001730066257
0.001730074881
0.001730065238
0.001730076853
0.001730063154
0.001730073613
0.001730075371
0.001730074332
0.001730062632
0.00173007578
0.001730069031
0.001730072933
0.001730067597
0.001730065524
0.001730069634
0.001730063578
0.001730064009
0.001730055222
0.001730079585
0.001730074936
0.001730067859
0.001730074693
0.001730075955
0.001730070597
0.00173007042
0.001730073803
0.001730066852
0.001730071025
0.001730077655
0.001730061484
0.001730070296
0.001730061759
0.001730075719
0.00173007677
0.00173006479
0.001730067564
0.001730066905
0.001730075586
0.001730068546
0.001730074765
0.001730072945
0.001730070073
0.001730076599
0.001730083292
0.001730057259
0.00173006434
0.001730083511
0.00173006297
0.001730061929
0.001730070754
0.001730072564
0.00173007156
0.001730077985
0.001730074448
0.001730071639
0.001730074307
0.001730072791
0.001730066922
0.001730070466
0.001730069292
0.001730073751
0.001730062752
0.001730070919
0.001730074368
0.001730064457
0.001730062939
0.001730059285
0.001730059008
0.00173007591
0.001730074286
0.00173006416
0.001730062825
0.001730072856
0.001730052806
0.0017300627
0.001730053885
0.001730074159
0.001730070583
0.00173006858
0.001730069523
0.001730066513
0.001730076089
0.001730067701
0.001730075775
0.001730076935
0.001730073427
0.001730073682
0.001730079471
0.001730070676
0.001730076055
0.001730073385
0.001730069611
0.001730076941
0.001730067906
0.00173007542
0.001730069718
0.001730073926
0.001730070269
0.001730066376
0.001730074265
0.001730071154
0.001730078888
0.001730083871
0.001730077221
0.001730070898
0.00173008405
0.00173007272
0.001730073374
0.001730072681
0.001730053589
0.001730069026
0.001730055286
0.001730062848
0.00173008016
0.00173006651
0.00173007209
0.00173006485
0.001730080129
0.001730072734
0.001730071589
0.001730066716
0.001730064983
0.001730075957
0.00173007104
0.001729584551
0.001730062716
0.001730075483
0.001730049571
0.001730063361
0.001730067123
0.001730065945
0.001730065005
0.001730080323
0.001730067034
0.001730073107
0.001730076753
0.001730067905
0.001730072803
0.00173007737
0.001730066005
0.001730062834
0.001730076362
0.001730068584
0.001730075185
0.001730070545
0.001730068681
0.001730067014
0.001730071546
0.001730072243
0.001730079848
0.001730079212
0.001730067256
0.001730067781
0.00173006266
0.001730079421
0.001730083919
0.001730074763
0.001730077423
0.001730067712
0.001730081616
0.001730075991
0.001730071884
0.001730072255
0.001730079046
0.001730075
0.001730070229
0.001730076505
0.001730072339
0.001730081013
0.001730083248
0.001730070781
0.001730077042
0.001730070478
0.001730073888
0.001730075466
0.001730080405
0.001730069934
0.001730071008
0.001730065785
0.00173007665
0.001730070504
0.001730072522
0.001730075715
0.001730071742
0.001730073397
0.001730070868
0.001730081551
0.00173007975
0.0017300736
0.001730077256
0.001730071792
0.001730072223
0.001730064949
0.001730077398
0.001730072338
0.001730077822
0.001730078574
0.001730079785
0.001730075552
0.001730067997
0.001730080479
0.001730074704
0.001730068872
0.001730079574
0.001730060755
0.00173007104
0.001730064011
0.001730081475
0.001730073697
0.001730076612
0.001730072949
0.001730069682
0.001729998718
0.001730072273
0.001730072006
0.001730072322
0.001730065563
0.001730077901
0.001730075381
0.001730065005
0.001730073096
0.001730067924
0.001730077731
0.00173006641
0.001730067759
0.001730055801
0.00173006957
0.001730061878
0.001730073898
0.001730068884
0.001730068938
0.001730074697
0.001730082145
0.001730073577
0.001730064767
0.001730076952
0.001730066472
0.001730072748
0.001730070873
0.001730080542
0.00173006725
0.001730079042
0.001730066033
0.001730068539
0.001730061125
0.001730065799
0.001730080911
0.001730078738
0.001730064068
0.001730071922
0.001730068211
0.001730068356
0.001730068986
0.001730050862
0.00173007715
0.001730066958
0.001730068535
0.001730076389
0.001730067207
0.001730066741
0.001730076305
0.001730076358
0.001730065523
0.001730068849
0.001730049141
0.001730065304
0.001730071475
0.001730078484
0.001730063714
0.001730074791
0.001730062264
0.00173007833
0.001730068065
0.001730067331
0.001730066711
0.001730069264
0.001730069028
0.001730074102
0.001730070294
0.001730062012
0.001730064474
0.00173007558
0.001730063009
0.001730062148
0.0017300776
0.001730076583
0.001730071177
0.001730077139
0.001730077051
0.001730078111
0.001730070866
0.001730075138
0.001730067717
0.001730077357
0.001730073151
0.001730067403
0.001730075276
0.001730081203
0.001730073047
0.00173007069
0.001730074397
0.001730075735
0.001730067364
0.001730063056
0.00173007096
0.001730072386
0.001730069966
0.00173006481
0.001730073518
0.001730076664
0.001730077637
0.00173007187
0.001730077469
0.001730057398
0.001730066432
0.001730075155
0.001730069211
0.001730071628
0.00173005902
0.001730071931
0.001730073438
0.001730075033
0.00173006783
0.001730077445
0.001730075068
0.001730074664
0.001730080656
0.001730077153
0.001730075032
0.001730077772
0.001730068639
0.001730062273
0.001730078071
0.001730061271
0.00173007273
0.001730063258
0.00173006796
0.001730069934
0.001730077094
0.001730059293
0.001730066297
0.001730068472
0.00173006022
0.001730075484
0.001730068159
0.001730064133
0.001730067982
0.001730060277
0.001730074888
0.001730075642
0.001730039825
0.001730072116
0.001730069658
0.001730065528
0.00172014672
0.001722086444
0.001720755591
0.001712928372
0.001718468992
0.001723540824
0.001724558518
0.001722818044
0.001723184461
0.00172364608
0.001722547481
0.001724620182
0.001724893184
0.001727795432
0.001724507338
0.001723687207
0.001724818665
0.001723371303
0.001708462386
0.001667400231
0.001670296038
0.001590749541
0.001662184097
0.001597283099
0.001721560293
0.001641216539
0.001684868344
0.001717259872
0.001669515435
0.001683330726
0.001583174127
0.001675519691
0.001712271898
0.001681532981
0.001728343258
0.001730069284
0.001730068786
0.001730063197
0.001730065576
0.001730063625
0.001730079109
0.001730062489
0.001730075103
0.001729721352
0.001730074872
0.001730061351
0.001730068195
0.001730062446
0.001730050513
0.001730061417
0.001730059939
0.001730068673
0.001730067251
0.001730063482
0.00173006849
0.001730075944
0.001730071618
0.001730066624
0.001730071136
0.001730074772
0.001730065298
0.001730067876
0.001722325096
0.001723361033
0.001725770881
0.001722607549
0.001718680199
0.001719657115
0.001726214398
0.001719111967
0.001719939174
0.001725979037
0.00172137028
0.0017215839
0.001712519173
0.001693758005
0.001654399373
0.001590893063
0.001626952225
0.001704930883
0.001592518793
0.001581810361
0.001565455809
0.001618110963
0.42711366
0.00163773412
0.001696194579
0.001730065757
0.001730048586
0.001730057592
0.001730055334
0.001730071775
0.001730059974
0.001730077502
0.001730072279
0.001730076869
0.001730077276
0.00173005464
0.001730071768
0.001730059247
0.001730064287
0.001730053476
0.001730067383
0.001730072707
0.001730069482
0.001725370802
0.001730060253
0.001730079923
0.001730055733
0.001730070747
0.001730043476
0.001730075483
0.001730049893
0.001721246807
0.001722793358
0.001713159885
0.001721261181
0.001721295134
0.001726895226
0.001721999611
0.001724371172
0.001727540853
0.001724147145
0.001692280938
0.001605441432
0.001602846145
0.001628092707
0.00163180476
0.001725962888
0.001704670924
0.001716921729
0.001649226233
0.001702596681
0.001704939331
0.001712329628
0.001658003896
0.001709414034
0.1340153384
0.7788053588
0.1413538271
0.3390604824
0.1741728709
0.6665471312
0.001559431809
0.3717851474
0.001484050648
0.2529654176
0.001712240272
0.001730068684
0.001730075378
0.001730070351
0.001730075265
0.001730065402
0.001730077048
0.001730064619
0.001730071709
0.001730070544
0.001730072061
0.001730067276
0.001730076753
0.001730067311
0.001730073625
0.001730072842
0.001730079279
0.001730070003
0.001730031258
0.00173006984
0.001730073308
0.001730075035
0.001730074535
0.001730065519
0.001730074853
0.001730075398
0.001730077973
0.001730066413
0.001730073601
0.001730060879
0.001730069949
0.00173006374
0.001730072268
0.001730072177
0.001730069358
0.001730072503
0.001730051523
0.001730059318
0.001730069987
0.001713233333
0.001723595313
0.001725022122
0.001725044378
0.001714567364
0.001713045255
0.001723756075
0.00172488497
0.001726799901
0.001724757777
0.001696220691
0.001721035931
0.001721086643
0.001720182934
0.001718946244
0.001722291907
0.001720933295
0.001723684689
0.00172061804
0.001721712113
0.001723763337
0.001709803345
0.001594082488
0.00163941385
0.001588657306
0.001639304815
0.001719066601
0.001697016909
0.001608759939
0.001660222795
0.001622130217
0.001724155698
0.00172170243
0.001613645242
0.001620067099
0.001610065502
0.001597469638
0.001641520608
0.001591969696
0.00173007767
0.001729737911
0.001730073754
0.001730076673
0.001730077134
0.001730063597
0.001728671776
0.001730074825
0.00173005623
0.001730055478
0.001730064635
0.001730047241
0.001728694919
0.001730070943
0.001730065609
0.001730067437
0.001730062919
0.001730068744
0.001730066643
0.001730073648
0.001730064662
0.001730057026
0.001730061278
0.001730061726
0.00173006265
0.001721166372
0.001726963345
0.001725935109
0.001726182054
0.00172613128
0.00172683925
0.001725940497
0.001721656981
0.001724510183
0.001725044907
0.001723033214
0.00162871936
0.001657953899
0.001647897532
0.001642168667
0.001699444201
0.001632128852
0.001699609703
0.001675912092
0.001724322862
0.001687576918
0.001725450943
0.001718655945
0.7220467771
0.001677555482
0.00173007812
0.001730064429
0.001730051148
0.001730074341
0.001730057891
0.001730068208
0.001730065482
0.001730060607
0.001730055789
0.001730060504
0.001730022752
0.001730073468
0.001730079581
0.001730078672
0.001730074224
0.001730066205
0.001730073097
0.001730055974
0.001730065284
0.001730058774
0.001730069214
0.001730056554
0.001730076476
0.001730054942
0.001730062816
0.001722199018
0.001723008796
0.001726786474
0.001722584377
0.0017226372
0.001726877743
0.001722054909
0.001722918578
0.001722555581
0.001725554214
0.001724309779
0.001721058769
0.001596470538
0.001646928893
0.001652490874
0.00168887494
0.001660469819
0.001667164838
0.001716821774
0.00171696584
0.001680028131
0.001594903833
0.00164779909
0.001612461763
0.001715727275
0.00159655782
0.7527182211
0.5140170679
0.00173006703
0.001730071535
0.001730069243
0.001730072556
0.00173006833
0.001730072476
0.001730054972
0.001730056326
0.001730065089
0.001730077473
0.001730069548
0.001730071142
0.001730075712
0.001730077428
0.00173006573
0.001730069412
0.001730072826
0.001730059193
0.001730013986
0.001730066352
0.001730066212
0.001730049855
0.00173007492
0.001730074518
0.001730074615
0.00173007153
0.00173006571
0.001730063864
0.001730068798
0.001730065621
0.001730064569
0.001730076428
0.001730068138
0.001717105616
0.001721789929
0.001717834531
0.001722380597
0.001718252025
0.00171794701
0.001723383794
0.001723963139
0.001722566858
0.00167314379
0.001722455547
0.001714530185
0.001715336438
0.001717094494
0.001717374691
0.001726059764
0.001713780573
0.001713644218
0.001718184615
0.00172559509
0.001679195251
0.001603926707
0.001710479495
0.001720303648
0.3721787166
0.001629477565
0.001622328169
0.001707708469
0.001608657808
0.001675506544
0.001695950005
0.00159528238
0.001710920218
0.001625559043
0.001651779011
0.001711715053
0.001730060965
0.001730065189
0.001730063902
0.001730073824
0.001730059292
0.001730077085
0.001728868571
0.001730060348
0.001730060108
0.001728259963
0.001730076229
0.001730049561
0.001730067037
0.001730046327
0.001721630199
0.001730057372
0.001730062209
0.001730065633
0.001730057547
0.001730075715
0.00173003502
0.001730070409
0.001730067415
0.001730053122
0.001730071902
0.001730053564
0.00173005348
0.001730052886
0.001716523112
0.001725940222
0.00171619225
0.001717249892
0.001724083365
0.001724267293
0.001723976937
0.001714304925
0.001723262417
0.001722198422
0.3587764606
0.001671640914
0.001630133128
0.1166713288
0.00172367122
0.001596512162
0.001720040567
0.001689135529
0.06326991615
0.001671498772
0.001716002627
0.001586584796
0.00160375296
0.001730070662
0.00172906353
0.001730058668
0.001730075185
0.001730058659
0.001730071251
0.001730062254
0.001730076108
0.001730050004
0.001730063726
0.001730055471
0.001730065711
0.001730055494
0.001730063679
0.00173006012
0.001730065779
0.00173006114
0.001730061686
0.001730067343
0.001730066942
0.00173005166
0.001730052144
0.001730068035
0.001730058638
0.001730063453
0.001730069901
0.001730055228
0.001730066512
0.001718570432
0.001719315117
0.001723170836
0.001721403717
0.001708675743
0.001708402834
0.001721291577
0.001704973297
0.001706950648
0.001727241931
0.001724497405
0.001718031015
0.001729709267
0.001724267383
0.001725179215
0.001673438309
0.001715494723
0.001564256432
0.001708207092
0.001636156488
0.001616260186
0.001691779582
0.001705762992
0.001632083138
0.001723166863
0.001646549016
0.09445383088
0.0009618719348
0.4985024259
0.207874797
0.1725048615
0.01022251863
0.04048240325
0.001528736206
0.008715535644
0.2592100012
0.03816448437
0.001490201378
0.4764585489
0.001730051672
0.001730063586
0.001730064308
0.001730059004
0.001730067268
0.001730072774
0.001730076028
0.00173007907
0.001730071587
0.001730067754
0.001730067524
0.001730076386
0.001730078975
0.001730076954
0.00173007432
0.001730075825
0.001730067705
0.001730076394
0.00173007405
0.001730077974
0.001730064918
0.001730051507
0.001730074545
0.00173006138
0.001730072484
0.001730075088
0.001730067051
0.0017300473
0.001730077507
0.001730069485
0.001730059598
0.001730066131
0.001730067339
0.00173007219
0.0017300752
0.001730068017
0.001730073835
0.001725965741
0.00172477962
0.001721211675
0.001720500512
0.001726130362
0.001724682236
0.0016924055
0.001726181063
0.001717292162
0.001722826049
0.001721539231
0.001721288385
0.001696542808
0.001726756325
0.001715941934
0.001724367675
0.00171229686
0.00171607519
0.0006952450166
0.001594736595
0.001718284053
0.001651179398
0.001709819329
0.001677300553
0.001595169949
0.001722900526
0.001719461418
0.001636287474
0.001633001336
0.001600897046
0.001620754872
0.001701512665
0.001657119831
0.001725649207
0.001579274047
0.001631460526
0.001673342587
0.001730065144
0.001730066621
0.001730067862
0.001730075201
0.001730057022
0.001730058789
0.00173006672
0.001730061259
0.001729890755
0.001730066053
0.001730053666
0.001730068396
0.001730058686
0.00173007394
0.001730069882
0.001730068876
0.001730050512
0.001730068635
0.001730041881
0.001730060832
0.001730070272
0.001730061601
0.001730073738
0.001730054162
0.00171800527
0.001720292986
0.001723652344
0.001717572215
0.001718517319
0.001718568462
0.001714392199
0.001723360245
0.001724635682
0.001715067916
0.001717104388
0.001718933003
0.001719596304
0.001717425258
0.001719360899
0.001715257887
0.001602739494
0.001568744377
0.00164921531
0.001671228702
0.001690869557
0.001680563132
0.001706971842
0.001590002444
0.001599674254
0.001659065222
0.001709916578
0.341465437
0.001730077763
0.001730068393
0.001730072576
0.001730075177
0.001730066039
0.001730078955
0.001730066444
0.001727726457
0.001730075463
0.001730062773
0.001730073277
0.001730078122
0.001730062323
0.001730069037
0.001730058404
0.001730074137
0.001730074489
0.0017300639
0.001730061954
0.001730069032
0.001730072185
0.001730067987
0.00173007252
0.001730064863
0.001730061979
0.001730067687
0.001727779819
0.001716522297
0.001727940477
0.001722520898
0.001724448101
0.001726101579
0.001724136523
0.001727547971
0.001721657987
0.001726835844
0.001720718222
0.001721898387
0.001727219089
0.001689391924
0.001714565597
0.001628942226
0.001692281473
0.001645500391
0.001702810913
0.001709966843
0.00171479937
0.001615640901
0.001583482962
0.001687894102
0.001675556289
0.6634735279
0.3037441358
0.02034090502
0.008624758488
0.1773601271
0.001548513164
0.7642131456
0.7738227755
0.7493622617
0.7416583821
0.7453200643
0.7473631223
0.7519811699
0.7486958878
0.7495732773
0.752601583
0.7510382073
0.7481416221
0.7776378305
0.7702878581
0.7453865118
0.7460671038
0.4034169113
0.7544653545
0.7777294839
0.371613506
0.05423770638
0.7835441516
0.7442607232
0.748138851
0.3461665217
0.05141826602
0.7493457489
0.7511648305
0.7516679266
0.7445595592
0.7442730636
0.7446134218
0.747880832
0.7438303236
0.7514931039
0.744187411
0.7469150577
0.7409820461
0.7517762952
0.7502002633
0.7477299942
0.7464759074
0.7429123321
0.7489987421
0.7464626799
0.7509235387
0.750205768
0.7516889141
0.7485112973
0.7459176106
0.7459202444
0.7514435242
0.7476283911
0.7705929315
0.7561087384
0.777011067
0.7519317727
0.7516403783
0.7511410616
0.7742070012
0.7527461441
0.7747064756
0.7518037023
0.7502559504
0.7732968185
0.7560510683
0.7504849873
0.7472784614
0.7453637722
0.752086768
0.7558570139
0.7539287753
0.7534967555
0.751781369
0.7498009166
0.7519878802
0.7518876596
0.7477972568
0.7539550979
0.7516489521
0.7473157688
0.7521417172
0.7538542131
0.7447692282
0.7523832465
0.7471630179
0.7456597338
0.7676861878
0.7579748793
0.7700641113
0.7731122977
0.753972186
0.7491597862
0.7500905086
0.7742047284
0.7775806955
0.780958017
0.7529654504
0.753340442
0.7461585267
0.786252513
0.7576908931
0.7531689375
0.7516134715
0.7817031289
0.7515621556
0.7488037666
0.7460239761
0.7501178499
0.758380096
0.749428366
0.7506539997
0.7451425072
0.7526926073
0.7497511241
0.7553455253
0.7526340627
0.7515397688
0.7476679355
0.7519635
0.7594792469
0.7510697849
0.7706960241
0.7764779426
0.4780761576
0.7503659405
0.7781313299
0.7525089673
0.7712321256
0.7554346445
0.7490007419
0.774748134
0.745293657
0.7838422571
0.7513838899
0.7577794914
0.7594729683
0.7525917079
0.7569777541
0.7752872161
0.7817738249
0.02348670578
0.784859989
0.7621171782
0.7551821191
0.7703871409
0.7484387104
0.7514477383
0.7515128169
0.7547294547
0.7510740233
0.7483515492
0.7524924647
0.7511508821
0.7508312212
0.7427587034
0.7532180201
0.7437445791
0.738807649
0.7478879751
0.7436964932
0.7508002395
0.7510478007
0.7380277358
0.7482322144
0.7596836791
0.4871852601
0.7485165711
0.755541749
0.7652830743
0.7813662896
0.7484688015
0.7741439223
0.7720406728
0.7486002305
0.758567608
0.650803574
0.2783642042
0.7460911092
0.7757448805
0.4566405909
0.748923736
0.1507157078
0.7588271322
0.7808410997
0.7545444676
0.7499442787
0.7715334471
0.7548989521
0.7506960014
0.7508827237
0.748413075
0.7507219913
0.7509592648
0.7552793892
0.7427545707
0.7522835552
0.7538527909
0.7567229387
0.7528926987
0.7489810036
0.752904394
0.749578336
0.7591839477
0.749906846
0.7579120639
0.7834262905
0.7785221795
0.7555502622
0.7510872234
0.777928577
0.7633792444
0.7491246342
0.7801255517
0.7796294166
0.758490151
0.7491750859
0.7510745836
0.7501877318
0.7472469962
0.7448159092
0.7480392874
0.7553663732
0.7474643812
0.7534660914
0.7561512723
0.748140618
0.7536207809
0.7545065017
0.7559568344
0.7451555182
0.7505241571
0.7570827648
0.7456324303
0.7514059858
0.7464632203
0.7510321464
0.7530509676
0.7564549324
0.7506023673
0.423336459
0.7835828524
0.7485916212
0.7462695464
0.7548662584
0.7523183849
0.7533830302
0.752790954
0.7502166647
0.7776136286
0.781195536
0.7499124485
0.7614091512
0.7538501591
0.7352973695
0.7771488869
0.7481049504
0.783618754
0.7525075377
0.7475661869
0.7848188251
0.7494686293
0.7539261713
0.7396660172
0.7493605597
0.7461171865
0.7815068485
0.7582762628
0.4086800988
0.7442158356
0.7478899803
0.7454530759
0.750973884
0.7434574533
0.74802459
0.7529891648
0.7535784243
0.7467335326
0.7522497665
0.7524918183
0.7474176397
0.7453516723
0.7524237465
0.7517341819
0.7478961706
0.7505752097
0.7402904561
0.7512438593
0.7439169693
0.749402522
0.7427514582
0.7437179978
0.7475862174
0.7509524616
0.7494828175
0.7505709493
0.7439979122
0.7485957316
0.7507307561
0.7449485316
0.7561776504
0.74665046
0.7501719025
0.7456886023
0.7546677539
0.7547100853
0.7661442809
0.7576773698
0.7529513919
0.5605559484
0.7500338607
0.7536314125
0.7478323933
0.7779473278
0.7511984668
0.7512069491
0.7455734518
0.7456377236
0.7459717873
0.7445544755
0.753164977
0.7460958902
0.7498243088
0.7520107585
0.7507780692
0.7485841194
0.7482464704
0.7517386681
0.7536406184
0.7475473454
0.7493401994
0.7532842811
0.7544041966
0.7551788678
0.757781535
0.7628697906
0.7469140822
0.7743542375
0.7709740087
0.7535459036
0.753164329
0.7529764605
0.7859750475
0.7518572443
0.7562198285
0.7570914629
0.7712161928
0.666892233
0.7480704782
0.7530889303
0.1872753693
0.7529027327
0.7488145263
0.7473343054
0.7505472768
0.749204953
0.7527369722
0.7546488055
0.752603186
0.7536663037
0.7543076062
0.7528521248
0.7493661741
0.7525597515
0.7495840039
0.7534518832
0.7497362942
0.7473430939
0.7507026634
0.7513769321
0.7547802869
0.7517123593
0.7518119268
0.7517211867
0.7753574528
0.7477789729
0.7758973202
0.7484653287
0.7549368071
0.772993975
0.7454236458
0.7473466614
0.7490184865
0.74900897
0.7498027927
0.7823401414
0.7460099833
0.765401308
0.7456697261
0.7813254456
0.7552377888
0.745706089
0.7468648749
0.7466348459
0.7821727236
0.7857358365
0.7472503472
0.752633578
0.7772930754
0.7488312712
0.7477674828
0.7545761626
0.7768584865
0.7461377917
0.7457153935
0.7469608603
0.7458462397
0.7542454501
0.7506445603
0.7457820954
0.7506830289
0.7478496962
0.7408141665
0.7509866585
0.7435092347
0.753279128
0.7451538176
0.751567124
0.7599982051
0.7496778769
0.7454159398
0.7498825391
0.7513720826
0.7791331487
0.7812869051
0.7531408009
0.7576223282
0.7332188758
0.7490302209
0.7848401043
0.7491411914
0.7704798486
0.7495220899
0.7658916759
0.7513759559
0.7519014948
0.7441247023
0.7546386042
0.7764615402
0.7547891707
0.7467304495
0.7524508055
0.7520528925
0.7523031236
0.7538102356
0.7545073395
0.7532523328
0.7495509762
0.7537812349
0.7496127049
0.7520333336
0.744205409
0.7479756032
0.7518211395
0.7544837904
0.7459202541
0.7651695504
0.6811104172
0.1237360057
0.7493068465
0.7718927882
0.609885232
0.7500031618
0.7551688024
0.7735231065
0.7364879717
0.7607462332
0.7556988006
0.746479757
0.7555718997
0.09349400628
0.7801661298
0.7523487594
0.7499327694
0.7477831578
0.7550230942
0.7488182861
0.7520685399
0.7565560369
0.7489971534
0.7463126047
0.7436943961
0.7496878206
0.7498933539
0.7521535137
0.7577592911
0.7523241608
0.7468137309
0.7594000376
0.7580182372
0.7705227441
0.7443872987
0.7799482701
)


// ************************************************************************* //
