/*--------------------------------*- C++ -*----------------------------------*\
  =========                 |
  \\      /  F ield         | OpenFOAM: The Open Source CFD Toolbox
   \\    /   O peration     | Website:  https://openfoam.org
    \\  /    A nd           | Version:  7
     \\/     M anipulation  |
\*---------------------------------------------------------------------------*/
FoamFile
{
    version     2.0;
    format      ascii;
    class       scalarField;
    location    "2/lagrangian/coalCloud1";
    object      YH2O(l);
}
// * * * * * * * * * * * * * * * * * * * * * * * * * * * * * * * * * * * * * //


2000
(
0.09715338039
0.09715240824
0.09715200232
0.09715221952
0.09715225956
0.09715233441
0.09715218106
0.09715294454
0.09715261583
0.0971530091
0.09715269063
0.09715309623
0.09715208927
0.09715281391
0.09715207396
0.09715191939
0.09715017352
0.09715267389
0.09715284122
0.09715225486
0.09715300973
0.09715222732
0.09715235599
0.09715134502
0.09715332201
0.09715246223
0.09715238546
0.09715303301
0.09715281321
0.09715259652
0.09715256201
0.09715252739
0.09715239627
0.09715187881
0.09715262677
0.09715307518
0.0971528779
0.09715209257
0.097152785
0.09715287279
0.09715313804
0.09715315996
0.09715252644
0.09715250151
0.09715287321
0.09715173821
0.0971518907
0.09715240585
0.09715314214
0.09715343083
0.09715305061
0.09715263631
0.09715184487
0.09715310471
0.09715285262
0.0971528716
0.09715332639
0.0971530626
0.09715223476
0.09715292501
0.09715323087
0.09715253495
0.09715225899
0.09715259151
0.09715237375
0.0971521602
0.09715280896
0.09715116016
0.09715276038
0.09715201019
0.09715278176
0.09715235388
0.0971522288
0.09715242905
0.09715282503
0.09715330047
0.09715298446
0.09715219761
0.09715192381
0.09715188045
0.09715131169
0.09715264418
0.09715262849
0.09715112364
0.09715153709
0.09715224327
0.09715064628
0.09715251986
0.0971530691
0.09715126654
0.09715263053
0.09715241479
0.09715106339
0.09715247532
0.0971527463
0.09715221714
0.09715250921
0.09715246393
0.0971524109
0.09715248327
0.09715114674
0.09715289958
0.09715249157
0.09715267158
0.09715276933
0.09715243807
0.0971524512
0.09715184555
0.09715238246
0.09715230092
0.09715159216
0.09715214001
0.09715167041
0.09715264233
0.09715228097
0.09715303293
0.09715318202
0.09715201162
0.0971523861
0.09715222899
0.09715274868
0.09715212348
0.09715279951
0.09715229453
0.09715235796
0.09715242697
0.09715235394
0.09715267585
0.09715243115
0.09715060498
0.09715181739
0.09715292099
0.09715287529
0.09715248244
0.09715267981
0.09715150713
0.09715293059
0.09715253904
0.0971536391
0.09715253461
0.09715233643
0.09715232428
0.09715282057
0.09715139608
0.09715292072
0.09715326818
0.09715217639
0.09715229975
0.09715269603
0.0971526196
0.09715209528
0.09715211691
0.09715226655
0.09715201021
0.09715167694
0.09715324677
0.09715220958
0.0971530041
0.09715251846
0.09715312997
0.09715311511
0.09715239119
0.09715225129
0.09715280869
0.09715229915
0.09715236167
0.09715167579
0.09715302536
0.09715277178
0.09715242623
0.09715241041
0.09715258397
0.0971522293
0.09715262913
0.09715255899
0.09715324364
0.09715236977
0.0971524316
0.09715275792
0.09715298367
0.09715144032
0.09715277794
0.09715263288
0.09715188763
0.09715105383
0.09715171549
0.09715255314
0.09715203015
0.09715239716
0.09715194071
0.09715297285
0.09715254182
0.09715151788
0.09715279335
0.09715166938
0.09715220868
0.09715211613
0.0971532822
0.09715238171
0.09715283386
0.09715254674
0.09715242218
0.09715246579
0.09715173031
0.09715258681
0.09715273037
0.09715246573
0.09715165811
0.09715258439
0.09715267373
0.09715281315
0.0971522956
0.09714991476
0.0971519705
0.09715167197
0.09715245915
0.0971526326
0.09715272248
0.09715307105
0.09715188706
0.09715275255
0.09715235918
0.09715360736
0.09715352594
0.09715249416
0.09715277855
0.09715334492
0.0971530376
0.09715230351
0.09715318961
0.09715209375
0.09715301348
0.09715254033
0.09715208325
0.09715232643
0.09715332196
0.09715303694
0.09715215917
0.09715259588
0.09715298115
0.09715323113
0.09715285232
0.09715328487
0.09715307296
0.09715321516
0.09715282521
0.09715327079
0.09715300378
0.09715309346
0.09715287556
0.09715336033
0.09715101456
0.09715253623
0.0971532793
0.09715312305
0.09715310692
0.09715177233
0.09715309479
0.09715320219
0.09715319261
0.09715324816
0.09715306291
0.0971529281
0.09715257216
0.09715319345
0.09715211439
0.09715300603
0.09715307595
0.09715100763
0.09715331977
0.09715260755
0.09715235479
0.09715281085
0.09715204384
0.09715260446
0.09715138062
0.09715265563
0.09715243637
0.09715208483
0.09715162611
0.09715195974
0.09715220308
0.09715182888
0.0971522948
0.09715202553
0.09715220494
0.0971507348
0.09715292633
0.09715187488
0.09715179698
0.09715220882
0.09715248011
0.09715308573
0.09715244118
0.09715206476
0.09715209716
0.09715217836
0.09715242033
0.09715205876
0.09715156117
0.09715201466
0.09715079694
0.09715316747
0.0971525148
0.09715270504
0.09715214571
0.09715298427
0.09715259654
0.09715168471
0.09715253798
0.09715180883
0.09715202024
0.09715257546
0.09715284958
0.09715243482
0.09715245876
0.09715202981
0.09715254806
0.09715141908
0.09715323672
0.0971521577
0.09715196213
0.09715245315
0.09715279906
0.09715204929
0.09715256631
0.09715160659
0.09715300419
0.09715202985
0.097153104
0.09715101157
0.09715209406
0.09715222942
0.0971526859
0.09715269632
0.09715292072
0.09715130175
0.09715296862
0.09715285141
0.09715270133
0.09715286407
0.09715256853
0.09715206506
0.09714891877
0.09715092755
0.09715130044
0.09715226562
0.09715226834
0.09715242505
0.0971521126
0.09715189311
0.09715275944
0.09715246167
0.09715243845
0.09715272693
0.09715212917
0.09715251743
0.09715245732
0.09715213178
0.09715367844
0.09715208387
0.09715229567
0.09715176043
0.09715327093
0.0971532123
0.09715180351
0.09715180406
0.09715208969
0.09715230119
0.09715231932
0.09715229337
0.09715196815
0.09715309962
0.0971518542
0.09715326314
0.09715271586
0.0971531122
0.0971518037
0.09715082191
0.09715171442
0.09715208671
0.09715257472
0.09715242857
0.09715225471
0.0971529355
0.09715247875
0.09715232088
0.09715079769
0.09715172426
0.09715233458
0.09715326589
0.09715299335
0.09715107396
0.09715289508
0.09715296684
0.09715192711
0.09715307654
0.09715213148
0.09715231018
0.09715217608
0.09715239621
0.09715254437
0.09715295976
0.09715267345
0.09715153974
0.09715188651
0.0971527299
0.09715304778
0.09715284457
0.0971522846
0.09715224254
0.09715116226
0.09715300328
0.09715267589
0.09715303198
0.09715278544
0.09715303272
0.09715239822
0.0971515369
0.0971522237
0.0971531521
0.09715285124
0.0971533814
0.09715255906
0.09715305926
0.0971524484
0.09715295376
0.09715340356
0.09715169836
0.09715266535
0.09715193098
0.09715232341
0.0971529683
0.09715299776
0.09715321297
0.09715240072
0.09715307623
0.09715161625
0.09715196658
0.09715240285
0.09715279899
0.09715206774
0.09715249383
0.09715261885
0.09715176553
0.09715290823
0.09715307658
0.0971523285
0.09715261911
0.09715222539
0.09715232015
0.09715207051
0.09715305566
0.09715301434
0.09715243866
0.09715196643
0.09715271527
0.09715187732
0.0971528864
0.09715169671
0.09715260494
0.09715275794
0.09715266728
0.09715165085
0.09715279312
0.09715220635
0.09715254518
0.09715208221
0.0971519032
0.09715225888
0.09715173311
0.0971517704
0.097151007
0.09715312366
0.09715272035
0.09715210473
0.09715269826
0.09715280752
0.09715234319
0.09715232789
0.09715262122
0.09715201708
0.09715237992
0.0971529555
0.0971515518
0.0971523165
0.09715157512
0.09715278702
0.09715287959
0.09715183851
0.09715207905
0.09715202195
0.09715277683
0.09715216516
0.09715270491
0.09715254608
0.09715229735
0.0971528637
0.09715344603
0.09715118451
0.09715179975
0.09715346451
0.09715167974
0.09715158915
0.0971523564
0.0971525146
0.09715242557
0.09715298428
0.0971526777
0.09715243291
0.09715266569
0.09715253304
0.0971520237
0.09715233171
0.09715222967
0.09715261572
0.09715166121
0.09715237089
0.09715267056
0.09715180982
0.09715167725
0.09715136077
0.09715133604
0.09715280458
0.0971526631
0.09715178316
0.09715166745
0.09715253943
0.09715079724
0.09715165709
0.09715089098
0.09715265214
0.09715234098
0.09715216742
0.09715224918
0.09715198821
0.09715281951
0.09715209122
0.09715279292
0.0971528935
0.09715258848
0.09715261076
0.09715311386
0.09715234942
0.09715281655
0.09715258517
0.09715225671
0.09715289373
0.09715210891
0.09715276241
0.09715226713
0.09715263204
0.09715231464
0.09715197609
0.09715266186
0.09715239075
0.09715306276
0.09715349637
0.09715291806
0.09715236879
0.09715351226
0.09715252713
0.0971525835
0.09715252372
0.09715086491
0.09715220652
0.09715101231
0.09715166988
0.09715317394
0.09715198735
0.09715247329
0.09715184345
0.09715317018
0.09715252842
0.09715242926
0.09715200569
0.09715185484
0.09715280818
0.09715238145
0.09711012176
0.09715165809
0.09715276803
0.09715051556
0.09715171425
0.09715204078
0.09715193826
0.09715185699
0.09715318749
0.09715203364
0.09715256071
0.09715287679
0.09715210898
0.09715253429
0.09715293054
0.09715194406
0.09715166868
0.09715284379
0.09715216733
0.09715274154
0.09715233793
0.09715217647
0.09715203134
0.09715242541
0.09715248497
0.09715314622
0.09715309072
0.09715205305
0.09715209843
0.09715165361
0.09715310851
0.09715350017
0.09715270511
0.09715293567
0.09715209239
0.09715329941
0.0971528108
0.09715245491
0.09715248597
0.09715307673
0.0971527246
0.09715231121
0.09715285608
0.09715249302
0.09715324694
0.09715344076
0.0971523592
0.0971529023
0.0971523318
0.09715262859
0.09715276626
0.09715319479
0.09715228537
0.09715237821
0.09715192449
0.09715286899
0.09715233517
0.09715250939
0.09715278749
0.09715244215
0.09715258651
0.09715236602
0.09715329382
0.0971531382
0.09715260366
0.09715292136
0.09715244695
0.09715248338
0.09715185214
0.09715293297
0.09715249419
0.09715297024
0.09715303574
0.09715314123
0.09715277329
0.09715211693
0.09715320121
0.09715269922
0.09715219272
0.09715312282
0.09715148825
0.09715238106
0.09715177093
0.09715328802
0.09715261201
0.09715286473
0.09715254715
0.0971522638
0.09714609926
0.09715248829
0.09715246436
0.09715249268
0.09715190508
0.0971529771
0.09715275788
0.09715185714
0.09715255946
0.09715211099
0.09715296284
0.09715197852
0.09715209624
0.09715105725
0.09715225353
0.09715158469
0.09715262999
0.09715219394
0.09715219906
0.09715269856
0.0971533456
0.09715260126
0.09715183704
0.09715289509
0.0971519847
0.09715253029
0.09715236721
0.09715320696
0.09715205153
0.09715307586
0.09715194732
0.09715216315
0.09715151972
0.09715192658
0.0971532391
0.09715305035
0.09715177568
0.09715245689
0.09715213592
0.09715214893
0.09715220217
0.09715062811
0.09715291193
0.09715202665
0.09715216431
0.09715284629
0.09715204871
0.0971520075
0.09715283859
0.09715284274
0.09715190191
0.09715219093
0.09715047959
0.09715188288
0.09715241902
0.09715302807
0.09715174517
0.09715270645
0.09715161901
0.09715301384
0.09715212274
0.0971520592
0.09715200549
0.09715222684
0.09715220601
0.09715264764
0.09715231643
0.09715159676
0.09715181048
0.09715277572
0.09715168404
0.09715160875
0.09715295189
0.09715286305
0.09715239266
0.09715291135
0.09715290363
0.097152995
0.09715236616
0.09715273703
0.09715209319
0.09715293046
0.09715256456
0.09715206571
0.09715274938
0.09715326396
0.09715255574
0.09715235066
0.09715267261
0.09715278881
0.09715206139
0.09715168781
0.09715237411
0.09715249795
0.09715228857
0.09715183978
0.0971525966
0.09715287022
0.09715295431
0.09715245302
0.09715293926
0.09715119622
0.09715198067
0.09715273908
0.09715222302
0.09715243235
0.0971513374
0.09715245883
0.09715259023
0.09715272844
0.09715210275
0.09715293792
0.09715273058
0.09715269564
0.09715321676
0.0971529122
0.09715272799
0.09715296616
0.09715217228
0.09715161927
0.09715299167
0.09715153158
0.09715252866
0.09715170507
0.09715211362
0.09715228496
0.09715290685
0.09715136031
0.09715196887
0.09715215822
0.09715144182
0.09715276709
0.09715213042
0.09715178156
0.09715211532
0.09715144629
0.09715271521
0.09715278039
0.09714966934
0.09715247439
0.09715226025
0.09715190304
0.09628971159
0.09645830305
0.09634194815
0.09566211222
0.09614303176
0.09658468855
0.09667318151
0.09652192414
0.096553712
0.09659383679
0.09649833929
0.09667846939
0.09670227309
0.09695470269
0.09666873942
0.09659745432
0.09669579906
0.09656999319
0.09527392411
0.09170507767
0.09195863299
0.08504280317
0.09125102607
0.08561106748
0.09641266864
0.08942897491
0.09322314118
0.09603872351
0.09188743871
0.09308946059
0.08438395515
0.09241001531
0.09560546484
0.09293354848
0.09700229129
0.09715222868
0.09715218517
0.09715170011
0.09715190632
0.09715173739
0.09715308207
0.09715163849
0.09715273489
0.09712200461
0.09715271337
0.09715153906
0.09715213425
0.09715163475
0.09715059796
0.09715154476
0.09715141698
0.09715217512
0.0971520506
0.09715172497
0.09715215966
0.09715280711
0.09715243134
0.09715199673
0.0971523889
0.09715270425
0.09715188293
0.09715210604
0.09647907713
0.09656912449
0.09677855542
0.09650363031
0.09616215097
0.09624708147
0.09681714038
0.09619968996
0.09627159919
0.09679665593
0.09639600394
0.09641459083
0.09562655385
0.09399585596
0.09057489402
0.08505632454
0.08818905779
0.09496702249
0.08519992876
0.08426786413
0.08284590245
0.08742128347
0.001121428088
0.08912619335
0.09420749163
0.09715192211
0.09715043033
0.09715121323
0.09715101636
0.09715244467
0.09715141931
0.09715294317
0.0971524887
0.09715288674
0.09715292266
0.09715095619
0.09715244396
0.09715135635
0.09715179421
0.09715085491
0.09715206293
0.09715252544
0.09715224506
0.09674407994
0.09715144381
0.09715315267
0.09715105067
0.09715235596
0.09714998628
0.09715276694
0.0971505434
0.09638525952
0.09651964084
0.09568224036
0.09638650949
0.09638945785
0.09687650351
0.09645094693
0.09665693855
0.09693242952
0.09663746773
0.09386740736
0.08631934528
0.08609399809
0.08828827278
0.08861192638
0.0967953888
0.09494403459
0.09600925349
0.09012531328
0.0947640802
0.0949690689
0.09561026606
0.09088805314
0.09535649899
0.0005718805301
0.00183169296
0.0005993390422
0.0009667104641
0.0006579712979
0.001537237133
0.08232326353
0.001013710141
0.02007340154
0.0007847651762
0.095602182
0.09715217691
0.09715275787
0.09715232144
0.09715274816
0.09715189079
0.09715290384
0.09715182363
0.09715243957
0.09715233767
0.09715247039
0.09715205369
0.09715287734
0.09715205711
0.0971526055
0.09715253812
0.09715309721
0.0971522912
0.0971489256
0.09715227706
0.09715257811
0.0971527277
0.09715268558
0.09715190136
0.09715271205
0.09715276043
0.09715298331
0.09715197891
0.09715260424
0.09715149886
0.09715228636
0.09715174655
0.09715248808
0.09715247961
0.09715223485
0.09715250807
0.0971506864
0.09715136236
0.09715228945
0.09568919417
0.09658940526
0.09671348171
0.09671541759
0.09580512416
0.09567284955
0.09660337792
0.09670156223
0.09686800138
0.09669054632
0.09421017977
0.09636693875
0.09637134781
0.09629278624
0.09618537367
0.09647625037
0.09635813208
0.09659717559
0.0963306529
0.09642587688
0.09660401343
0.09538841438
0.085332764
0.08927246809
0.08486503828
0.0892631436
0.0961949473
0.09427892032
0.08660823909
0.0910781674
0.08777117646
0.09663814465
0.0964249345
0.0870324955
0.08759096395
0.08672168503
0.08562791419
0.08945474889
0.08514939488
0.09715295658
0.09712344286
0.0971526167
0.0971528707
0.09715291036
0.09715173543
0.09703082926
0.09715271104
0.09715109505
0.09715102927
0.09715182462
0.09715031398
0.09703283937
0.09715237287
0.09715190896
0.09715206815
0.09715167448
0.09715218256
0.097151999
0.09715260812
0.09715182678
0.09715116321
0.09715153352
0.09715157166
0.09715165138
0.09637827327
0.09688219315
0.09679285056
0.09681423027
0.09680990366
0.09687138551
0.09679336214
0.09642101168
0.09666897761
0.09671546206
0.09654045579
0.08834240388
0.09088359862
0.09000905776
0.08951095163
0.09449041989
0.08863846968
0.09450354494
0.09244390449
0.0966528209
0.09345823089
0.09675080813
0.09616024918
0.001684811878
0.09258697664
0.09715299668
0.09715180748
0.09715065317
0.09715266764
0.0971512386
0.09715213486
0.09715189792
0.0971514742
0.09715105628
0.09715146548
0.09714818613
0.09715259217
0.09715312346
0.09715304417
0.09715265788
0.09715196042
0.09715255928
0.09715107217
0.09715188064
0.09715131477
0.09715222234
0.09715112228
0.09715285396
0.09715098338
0.09715166687
0.09646802312
0.09653843323
0.09686685909
0.0965015289
0.09650612409
0.09687479396
0.09645549282
0.09653057688
0.09649901434
0.09675972454
0.09665155665
0.09636892145
0.0855435494
0.08992408906
0.09040888458
0.09357148928
0.09110236481
0.09168405217
0.09600052254
0.09601306271
0.09280233898
0.08540397033
0.09000132146
0.08693035338
0.09590557707
0.08554839937
0.001635400648
0.001284401025
0.0971520324
0.09715242444
0.09715222455
0.09715251322
0.09715214589
0.097152506
0.09715098496
0.09715110338
0.097151865
0.09715294014
0.09715225124
0.09715239075
0.09715278745
0.09715293653
0.09715191895
0.09715223884
0.09715253554
0.09715135128
0.09714742539
0.09715197385
0.09715196178
0.09715054077
0.09715271803
0.09715268357
0.09715269147
0.09715242367
0.09715191802
0.097151758
0.09715218722
0.09715190992
0.0971518181
0.09715284944
0.09715212919
0.09602609697
0.09643257006
0.09608857247
0.09648391021
0.09612487117
0.09609835762
0.09657113608
0.09662144443
0.096500073
0.09220512386
0.09649039775
0.09580141601
0.09587150123
0.09602438476
0.09604872859
0.09680368177
0.09573657066
0.09572471442
0.09611913006
0.09676328787
0.09273088925
0.08618779509
0.09544958138
0.0963034297
0.00100439937
0.08840775713
0.08778720711
0.09520888088
0.08659948607
0.0924099209
0.09418630312
0.08543728881
0.09548771284
0.08806820876
0.09034745533
0.09555704641
0.09715150487
0.09715187255
0.09715176149
0.09715262353
0.09715136043
0.09715290726
0.09704792514
0.09715145262
0.09715143211
0.09699505675
0.09715283176
0.0971505149
0.09715203332
0.09715023432
0.09641914024
0.09715119388
0.09715161354
0.09715191149
0.09715120854
0.09715278707
0.0971492523
0.09715232639
0.09715206658
0.09715082331
0.0971524563
0.09715086237
0.0971508556
0.09715080338
0.09597450316
0.09679319607
0.09594578047
0.0960376712
0.09663190167
0.0966478889
0.0966226549
0.09578177761
0.09656041721
0.09646808635
0.001040503085
0.09207162293
0.08846536702
0.0005375457579
0.09659600389
0.08554483225
0.09628053486
0.09359414481
0.0004495628692
0.09206090053
0.09592947524
0.08468083576
0.08617106133
0.09715234917
0.09706486085
0.0971513058
0.09715274069
0.09715130613
0.09715239996
0.09715161747
0.09715282109
0.0971505537
0.09715174616
0.09715102883
0.09715191756
0.09715103008
0.09715174225
0.09715143242
0.09715192468
0.09715152155
0.09715156879
0.0971520599
0.09715202522
0.09715069813
0.09715073939
0.0971521197
0.09715130409
0.09715172174
0.0971522827
0.0971510077
0.09715198799
0.09615266739
0.09621738488
0.09655245704
0.09639893311
0.09529269304
0.09526896868
0.09638917879
0.09497089265
0.0951427612
0.09690641156
0.09666792744
0.09610593857
0.09712095488
0.09664793348
0.09672720109
0.09222942814
0.09588531912
0.0827446262
0.09525184161
0.08898948401
0.08726060542
0.09382418391
0.09503958166
0.08863557009
0.09655229442
0.08989263903
0.0005155499638
0.02922127798
0.001159185958
0.0006943195217
0.0006425590868
0.0003940667463
0.000438018957
0.07965694442
0.0003929252404
0.0008515338905
0.0004274611258
0.07630796488
0.001113367836
0.09715069886
0.09715173455
0.09715179664
0.09715133521
0.09715205317
0.09715253155
0.09715281355
0.09715307906
0.0971524287
0.09715209542
0.09715207566
0.09715284611
0.09715307003
0.09715289504
0.09715266595
0.09715279738
0.09715209186
0.09715284656
0.09715264305
0.09715298345
0.09715184942
0.09715068379
0.09715268516
0.09715154254
0.09715250749
0.09715273309
0.09715203414
0.09715031761
0.09715294281
0.09715224612
0.0971513867
0.09715195446
0.09715205926
0.09715248103
0.09715274327
0.09715211813
0.09715262371
0.096795472
0.09669242772
0.09638222812
0.09632039906
0.09680978097
0.09668396207
0.09387818324
0.09681414643
0.09604120861
0.09652207179
0.09641057978
0.09638876548
0.09423770643
0.09686414102
0.09592396406
0.09665657851
0.09560726523
0.0959355512
0.0003752324204
0.08539052511
0.09612626287
0.09029531617
0.09539202212
0.09256557782
0.08542826036
0.09652896283
0.09622994939
0.08899958246
0.08871431978
0.08592454973
0.08765312595
0.09466980505
0.0908101009
0.0967679277
0.08404484024
0.08858091008
0.09222228231
0.09715186887
0.0971519968
0.09715210492
0.09715274287
0.09715116323
0.09715131728
0.09715200572
0.09715153181
0.09713672015
0.09715194827
0.09715087129
0.09715215151
0.09715130741
0.09715263315
0.09715228013
0.09715219276
0.09715059722
0.09715217177
0.09714984816
0.09715149336
0.0971523138
0.09715156075
0.09715261541
0.09715091547
0.09610360561
0.0963024863
0.09659444531
0.09606596236
0.09614812516
0.09615256899
0.09578959044
0.09656904928
0.09667966964
0.09584826953
0.09602503075
0.09618429498
0.09624193757
0.09605325663
0.09622147459
0.09586482891
0.08608536038
0.08313158092
0.09012444619
0.09203702048
0.09374442041
0.09284850231
0.09514525152
0.08497729219
0.08581939658
0.0909807001
0.09540100826
0.0009793569185
0.09715296481
0.09715215121
0.09715251417
0.09715274118
0.09715194633
0.09715306926
0.09715198228
0.09694871125
0.09715276539
0.09715166322
0.09715257606
0.09715299709
0.09715162341
0.09715220724
0.0971512824
0.09715264989
0.09715268053
0.09715176064
0.09715159137
0.09715220687
0.09715248124
0.0971521154
0.09715250993
0.09715184437
0.09715159294
0.09715208992
0.0969531998
0.09597441863
0.09696716881
0.09649599388
0.0966634609
0.09680729608
0.09663636389
0.09693304283
0.09642100585
0.09687112978
0.09633930307
0.09644190434
0.09690444175
0.09361564252
0.0958045494
0.0883603784
0.09386699709
0.08980205609
0.09478265709
0.09540459529
0.09582472817
0.08720575537
0.08441406392
0.09348594484
0.09241346149
0.001597323113
0.000859200334
0.0004038748333
0.04404801521
0.0006489825773
0.08137023457
0.001952434181
0.001872984556
0.00207561883
0.001634571403
0.00210903012
0.002092025765
0.002053723774
0.002081146986
0.002073951835
0.002048565356
0.002061648884
0.00208567122
0.001841273966
0.001902192318
0.002108272529
0.002102871856
0.0009954842203
0.002033297247
0.001840476811
0.000964610838
0.0004576797729
0.001792316556
0.002117799114
0.002085742327
0.0009684403851
0.0004610798841
0.002075612606
0.002060435099
0.002056404352
0.002115239756
0.00211785411
0.002114773609
0.002087643102
0.002121180081
0.002057959842
0.002118564881
0.002095764821
0.002144831145
0.002055377703
0.002068703408
0.002088996851
0.002099349995
0.002129052926
0.002078494511
0.002099683358
0.002062649373
0.002068563491
0.002056113688
0.002082723683
0.002104214639
0.00210392807
0.002058294667
0.002090006213
0.001899717159
0.002019618317
0.001846455579
0.00205439408
0.002056523296
0.002060842416
0.001869861704
0.002047642932
0.001865535913
0.002055394289
0.00206797105
0.001877227239
0.002020153625
0.002066116684
0.002092605695
0.002108474669
0.002052883877
0.002021731792
0.002037540663
0.002041216913
0.002055448682
0.002071742215
0.002053822002
0.002054670279
0.002088666327
0.00203759306
0.002056575733
0.002092507294
0.002052530865
0.002038298152
0.002113471248
0.002050606233
0.002093758991
0.002106294977
0.001923753127
0.00200421585
0.001904071659
0.001878880762
0.002037382735
0.002077309096
0.00206946916
0.001869850911
0.00184170778
0.001813905931
0.002045809991
0.002042710514
0.002102069774
0.001770025474
0.002006470556
0.002043888311
0.002056974272
0.001807681781
0.002057281707
0.002080219734
0.002103332089
0.002069281959
0.002000967959
0.002075121512
0.002064813383
0.002110384318
0.002048016661
0.00207228595
0.002026143345
0.002048603687
0.002057644306
0.002089529839
0.002053846919
0.001991859035
0.002061210094
0.001898917868
0.001850915589
0.001144665625
0.002067227601
0.001837257559
0.002049482459
0.001894515865
0.002025267684
0.002078384019
0.001865250728
0.002109212382
0.001789898809
0.002058869612
0.001715862006
0.001681689684
0.002048647742
0.002012402767
0.001860723964
0.001807073599
0.0004372230788
0.001781610117
0.001969755935
0.002027195661
0.001901299536
0.002083290342
0.002058257893
0.002057809229
0.002031107047
0.002061232064
0.002084061216
0.002049747593
0.002060830274
0.002063424358
0.00213039478
0.00204368934
0.00212217042
0.002163126053
0.00208763173
0.002122311226
0.002063767641
0.002061394943
0.002169286841
0.002085016604
0.001990220632
0.001113202415
0.002082486059
0.002024391885
0.001737714336
0.001810544185
0.002082969266
0.00187026968
0.00188758577
0.002081759371
0.001999281522
0.001434011391
0.0007937733086
0.002102559301
0.001856971929
0.001145436575
0.002079014852
0.0006042989557
0.001997304005
0.001814835905
0.002032743764
0.002070726096
0.001891913882
0.002029596875
0.002064318143
0.002062913796
0.002083363254
0.002064160894
0.002062381919
0.002026512928
0.002130284355
0.002051202448
0.002038409059
0.002014560518
0.00204642034
0.002078720569
0.002046152391
0.00207379671
0.001994271546
0.002071095527
0.00200469821
0.001793440174
0.001833976871
0.002024441145
0.002061090262
0.001838835744
0.00195940082
0.002077596696
0.001820692456
0.001824909482
0.001999857022
0.002077029393
0.002061510014
0.002068570803
0.002092865751
0.002113258858
0.00208639186
0.00202569838
0.002091220489
0.002041676586
0.002019397511
0.00208582377
0.0020403134
0.002033064768
0.002021008073
0.002110255744
0.002065954776
0.002011627083
0.002106521101
0.002058622047
0.002099438713
0.002061540857
0.002045005605
0.002016826935
0.002065190659
0.001068190659
0.001792020285
0.002081862193
0.002101066724
0.002030037845
0.002051197144
0.002042366637
0.002047056616
0.002068338959
0.001841468395
0.001811847113
0.002071097512
0.001975874834
0.002038450194
0.001613648072
0.001845464745
0.002086020866
0.00179182738
0.002049593677
0.002090255574
0.001781812345
0.002074809698
0.002037760425
0.002155834814
0.00207541421
0.002102398379
0.001809198237
0.001692652517
0.00102800399
0.002118078821
0.002087559442
0.002107837825
0.002062158502
0.002124373617
0.002086597708
0.002045578773
0.002040665915
0.002097396164
0.0020517367
0.002049669088
0.002091690253
0.002108704254
0.002050127205
0.002056016956
0.002087820164
0.002065345397
0.002150753684
0.002059889466
0.002120505449
0.002075265094
0.002130293218
0.002122175186
0.002090227212
0.002062346567
0.002074684885
0.00206563318
0.002120029245
0.002081713382
0.002064163747
0.002112262637
0.002018926759
0.002097891556
0.002068689507
0.00210609635
0.002031543547
0.002031179941
0.001936589779
0.002006539622
0.002045834439
0.00126882203
0.002069969643
0.002040133127
0.002088321255
0.001838670528
0.002060263583
0.002060099243
0.002106803736
0.00210649337
0.002103786437
0.002115162052
0.002043871875
0.002102531951
0.002071775331
0.002053546003
0.002063911853
0.002082000006
0.002084803382
0.002055712048
0.002039923755
0.002090511645
0.002075813261
0.002043012794
0.002033933038
0.002027348335
0.002005670196
0.001963512895
0.002095830507
0.001868513615
0.00189649872
0.002041055341
0.002044215573
0.002045734578
0.001772216888
0.00205497337
0.002018615987
0.002011619144
0.001894487596
0.001467169424
0.002086063251
0.002044816173
0.0006528127287
0.002046097922
0.002080099663
0.002092231599
0.002065657443
0.002076836714
0.002047505026
0.002031676012
0.002048553463
0.002039749155
0.002034616812
0.002046658251
0.002075351584
0.002049040829
0.002073871897
0.002041786052
0.002072491621
0.002092231498
0.002064260065
0.002058916912
0.002030687703
0.002055949722
0.002055198057
0.002055827928
0.001860274961
0.00208848644
0.001855647368
0.002082882639
0.002029375096
0.001879869345
0.002108300376
0.002092325456
0.002078198299
0.002078598664
0.002071853947
0.001802389002
0.002103115935
0.001715083057
0.002106047062
0.001810896315
0.002026868419
0.002105973203
0.002096232874
0.002097943481
0.00180378108
0.001774241085
0.002092950283
0.002048374211
0.001844225539
0.002079954338
0.002088574716
0.002032237178
0.001847847579
0.002102308611
0.002105699671
0.002095446723
0.00210479023
0.002034992133
0.002064925329
0.002105327146
0.00206458464
0.00208812422
0.002146379217
0.002061947283
0.002124089603
0.002043094777
0.002110387175
0.002057095214
0.001987449417
0.00207298888
0.002108288218
0.002071043371
0.002058953636
0.001829034759
0.001811165718
0.002044295826
0.002007052399
0.001661719322
0.002078309859
0.001781639694
0.002077207005
0.001900605631
0.002074109405
0.001696034417
0.002058985012
0.00205456658
0.002118727647
0.002031954271
0.001851174568
0.002030497018
0.002097369837
0.002049848939
0.002053246856
0.002051114967
0.002038645067
0.002032789503
0.002043313048
0.002073826686
0.002039088401
0.002073296434
0.002053538931
0.002118290893
0.002086848068
0.002055201736
0.002032948304
0.002103989286
0.001944765989
0.001528814833
0.0005310895599
0.002075967164
0.001888786855
0.001375581123
0.002070049823
0.002027454127
0.001875292082
0.001645371104
0.001981352558
0.002022883816
0.00209928046
0.002024181178
0.0004953275117
0.00182038924
0.002050903727
0.002070964799
0.00208853167
0.002028724194
0.002080011597
0.002053104801
0.002015973152
0.002078379034
0.002100644945
0.00212247025
0.002072750252
0.002071260635
0.002052305041
0.002006024402
0.002051139268
0.00209662819
0.001992408776
0.002003699483
0.001900379704
0.002116625004
0.001822130464
)


// ************************************************************************* //
