/*--------------------------------*- C++ -*----------------------------------*\
  =========                 |
  \\      /  F ield         | OpenFOAM: The Open Source CFD Toolbox
   \\    /   O peration     | Website:  https://openfoam.org
    \\  /    A nd           | Version:  7
     \\/     M anipulation  |
\*---------------------------------------------------------------------------*/
FoamFile
{
    version     2.0;
    format      ascii;
    class       scalarField;
    location    "2/lagrangian/coalCloud1";
    object      Ysolid;
}
// * * * * * * * * * * * * * * * * * * * * * * * * * * * * * * * * * * * * * //


2000
(
0.9028466196
0.9028475918
0.9028479977
0.9028477805
0.9028477404
0.9028476656
0.9028478189
0.9028470555
0.9028473842
0.9028469909
0.9028473094
0.9028469038
0.9028479107
0.9028471861
0.902847926
0.9028480806
0.9028498265
0.9028473261
0.9028471588
0.9028477451
0.9028469903
0.9028477727
0.902847644
0.902848655
0.902846678
0.9028475378
0.9028476145
0.902846967
0.9028471868
0.9028474035
0.902847438
0.9028474726
0.9028476037
0.9028481212
0.9028473732
0.9028469248
0.9028471221
0.9028479074
0.902847215
0.9028471272
0.902846862
0.90284684
0.9028474736
0.9028474985
0.9028471268
0.9028482618
0.9028481093
0.9028475941
0.9028468579
0.9028465692
0.9028469494
0.9028473637
0.9028481551
0.9028468953
0.9028471474
0.9028471284
0.9028466736
0.9028469374
0.9028477652
0.902847075
0.9028467691
0.9028474651
0.902847741
0.9028474085
0.9028476262
0.9028478398
0.902847191
0.9028488398
0.9028472396
0.9028479898
0.9028472182
0.9028476461
0.9028477712
0.9028475709
0.902847175
0.9028466995
0.9028470155
0.9028478024
0.9028480762
0.9028481196
0.9028486883
0.9028473558
0.9028473715
0.9028488764
0.9028484629
0.9028477567
0.9028493537
0.9028474801
0.9028469309
0.9028487335
0.9028473695
0.9028475852
0.9028489366
0.9028475247
0.9028472537
0.9028477829
0.9028474908
0.9028475361
0.9028475891
0.9028475167
0.9028488533
0.9028471004
0.9028475084
0.9028473284
0.9028472307
0.9028475619
0.9028475488
0.9028481545
0.9028476175
0.9028476991
0.9028484078
0.90284786
0.9028483296
0.9028473577
0.902847719
0.9028469671
0.902846818
0.9028479884
0.9028476139
0.902847771
0.9028472513
0.9028478765
0.9028472005
0.9028477055
0.902847642
0.902847573
0.9028476461
0.9028473241
0.9028475689
0.902849395
0.9028481826
0.902847079
0.9028471247
0.9028475176
0.9028473202
0.9028484929
0.9028470694
0.902847461
0.9028463609
0.9028474654
0.9028476636
0.9028476757
0.9028471794
0.9028486039
0.9028470793
0.9028467318
0.9028478236
0.9028477003
0.902847304
0.9028473804
0.9028479047
0.9028478831
0.9028477334
0.9028479898
0.9028483231
0.9028467532
0.9028477904
0.9028469959
0.9028474815
0.90284687
0.9028468849
0.9028476088
0.9028477487
0.9028471913
0.9028477008
0.9028476383
0.9028483242
0.9028469746
0.9028472282
0.9028475738
0.9028475896
0.902847416
0.9028477707
0.9028473709
0.902847441
0.9028467564
0.9028476302
0.9028475684
0.9028472421
0.9028470163
0.9028485597
0.9028472221
0.9028473671
0.9028481124
0.9028489462
0.9028482845
0.9028474469
0.9028479698
0.9028476028
0.9028480593
0.9028470272
0.9028474582
0.9028484821
0.9028472066
0.9028483306
0.9028477913
0.9028478839
0.9028467178
0.9028476183
0.9028471661
0.9028474533
0.9028475778
0.9028475342
0.9028482697
0.9028474132
0.9028472696
0.9028475343
0.9028483419
0.9028474156
0.9028473263
0.9028471868
0.9028477044
0.9028500852
0.9028480295
0.902848328
0.9028475408
0.9028473674
0.9028472775
0.9028469289
0.9028481129
0.9028472475
0.9028476408
0.9028463926
0.9028464741
0.9028475058
0.9028472215
0.9028466551
0.9028469624
0.9028476965
0.9028468104
0.9028479063
0.9028469865
0.9028474597
0.9028479167
0.9028476736
0.902846678
0.9028469631
0.9028478408
0.9028474041
0.9028470188
0.9028467689
0.9028471477
0.9028467151
0.902846927
0.9028467848
0.9028471748
0.9028467292
0.9028469962
0.9028469065
0.9028471244
0.9028466397
0.9028489854
0.9028474638
0.9028467207
0.9028468769
0.9028468931
0.9028482277
0.9028469052
0.9028467978
0.9028468074
0.9028467518
0.9028469371
0.9028470719
0.9028474278
0.9028468065
0.9028478856
0.902846994
0.9028469241
0.9028489924
0.9028466802
0.9028473925
0.9028476452
0.9028471891
0.9028479562
0.9028473955
0.9028486194
0.9028473444
0.9028475636
0.9028479152
0.9028483739
0.9028480403
0.9028477969
0.9028481711
0.9028477052
0.9028479745
0.9028477951
0.9028492652
0.9028470737
0.9028481251
0.902848203
0.9028477912
0.9028475199
0.9028469143
0.9028475588
0.9028479352
0.9028479028
0.9028478216
0.9028475797
0.9028479412
0.9028484388
0.9028479853
0.9028492031
0.9028468325
0.9028474852
0.902847295
0.9028478543
0.9028470157
0.9028474035
0.9028483153
0.902847462
0.9028481912
0.9028479798
0.9028474245
0.9028471504
0.9028475652
0.9028475412
0.9028479702
0.9028474519
0.9028485809
0.9028467633
0.9028478423
0.9028480379
0.9028475468
0.9028472009
0.9028479507
0.9028474337
0.9028483934
0.9028469958
0.9028479702
0.902846896
0.9028489884
0.9028479059
0.9028477706
0.9028473141
0.9028473037
0.9028470793
0.9028486983
0.9028470314
0.9028471486
0.9028472987
0.9028471359
0.9028474315
0.9028479349
0.9028510812
0.9028490724
0.9028486996
0.9028477344
0.9028477317
0.9028475749
0.9028478874
0.9028481069
0.9028472406
0.9028475383
0.9028475615
0.9028472731
0.9028478708
0.9028474826
0.9028475427
0.9028478682
0.9028463216
0.9028479161
0.9028477043
0.9028482396
0.9028467291
0.9028467877
0.9028481965
0.9028481959
0.9028479103
0.9028476988
0.9028476807
0.9028477066
0.9028480319
0.9028469004
0.9028481458
0.9028467369
0.9028472841
0.9028468878
0.9028481963
0.9028491781
0.9028482856
0.9028479133
0.9028474253
0.9028475714
0.9028477453
0.9028470645
0.9028475213
0.9028476791
0.9028492023
0.9028482757
0.9028476654
0.9028467341
0.9028470067
0.902848926
0.9028471049
0.9028470332
0.9028480729
0.9028469235
0.9028478685
0.9028476898
0.9028478239
0.9028476038
0.9028474556
0.9028470402
0.9028473266
0.9028484603
0.9028481135
0.9028472701
0.9028469522
0.9028471554
0.9028477154
0.9028477575
0.9028488377
0.9028469967
0.9028473241
0.902846968
0.9028472146
0.9028469673
0.9028476018
0.9028484631
0.9028477763
0.9028468479
0.9028471488
0.9028466186
0.9028474409
0.9028469407
0.9028475516
0.9028470462
0.9028465964
0.9028483016
0.9028473346
0.902848069
0.9028476766
0.9028470317
0.9028470022
0.902846787
0.9028475993
0.9028469238
0.9028483838
0.9028480334
0.9028475971
0.902847201
0.9028479323
0.9028475062
0.9028473811
0.9028482345
0.9028470918
0.9028469234
0.9028476715
0.9028473809
0.9028477746
0.9028476798
0.9028479295
0.9028469443
0.9028469857
0.9028475613
0.9028480336
0.9028472847
0.9028481227
0.9028471136
0.9028483033
0.9028473951
0.9028472421
0.9028473327
0.9028483492
0.9028472069
0.9028477937
0.9028474548
0.9028479178
0.9028480968
0.9028477411
0.9028482669
0.9028482296
0.902848993
0.9028468763
0.9028472796
0.9028478953
0.9028473017
0.9028471925
0.9028476568
0.9028476721
0.9028473788
0.9028479829
0.9028476201
0.9028470445
0.9028484482
0.9028476835
0.9028484249
0.902847213
0.9028471204
0.9028481615
0.9028479209
0.9028479781
0.9028472232
0.9028478348
0.9028472951
0.9028474539
0.9028477026
0.9028471363
0.902846554
0.9028488155
0.9028482003
0.9028465355
0.9028483203
0.9028484108
0.9028476436
0.9028474854
0.9028475744
0.9028470157
0.9028473223
0.9028475671
0.9028473343
0.902847467
0.9028479763
0.9028476683
0.9028477703
0.9028473843
0.9028483388
0.9028476291
0.9028473294
0.9028481902
0.9028483227
0.9028486392
0.902848664
0.9028471954
0.9028473369
0.9028482168
0.9028483326
0.9028474606
0.9028492028
0.9028483429
0.902849109
0.9028473479
0.902847659
0.9028478326
0.9028477508
0.9028480118
0.9028471805
0.9028479088
0.9028472071
0.9028471065
0.9028474115
0.9028473892
0.9028468861
0.9028476506
0.9028471834
0.9028474148
0.9028477433
0.9028471063
0.9028478911
0.9028472376
0.9028477329
0.902847368
0.9028476854
0.9028480239
0.9028473381
0.9028476092
0.9028469372
0.9028465036
0.9028470819
0.9028476312
0.9028464877
0.9028474729
0.9028474165
0.9028474763
0.9028491351
0.9028477935
0.9028489877
0.9028483301
0.9028468261
0.9028480127
0.9028475267
0.9028481566
0.9028468298
0.9028474716
0.9028475707
0.9028479943
0.9028481452
0.9028471918
0.9028476186
0.9028898782
0.9028483419
0.902847232
0.9028494844
0.9028482858
0.9028479592
0.9028480617
0.902848143
0.9028468125
0.9028479664
0.9028474393
0.9028471232
0.902847891
0.9028474657
0.9028470695
0.9028480559
0.9028483313
0.9028471562
0.9028478327
0.9028472585
0.9028476621
0.9028478235
0.9028479687
0.9028475746
0.902847515
0.9028468538
0.9028469093
0.9028479469
0.9028479016
0.9028483464
0.9028468915
0.9028464998
0.9028472949
0.9028470643
0.9028479076
0.9028467006
0.9028471892
0.9028475451
0.902847514
0.9028469233
0.9028472754
0.9028476888
0.9028471439
0.902847507
0.9028467531
0.9028465592
0.9028476408
0.9028470977
0.9028476682
0.9028473714
0.9028472337
0.9028468052
0.9028477146
0.9028476218
0.9028480755
0.902847131
0.9028476648
0.9028474906
0.9028472125
0.9028475579
0.9028474135
0.902847634
0.9028467062
0.9028468618
0.9028473963
0.9028470786
0.902847553
0.9028475166
0.9028481479
0.902847067
0.9028475058
0.9028470298
0.9028469643
0.9028468588
0.9028472267
0.9028478831
0.9028467988
0.9028473008
0.9028478073
0.9028468772
0.9028485118
0.9028476189
0.9028482291
0.902846712
0.902847388
0.9028471353
0.9028474529
0.9028477362
0.9028539007
0.9028475117
0.9028475356
0.9028475073
0.9028480949
0.9028470229
0.9028472421
0.9028481429
0.9028474405
0.902847889
0.9028470372
0.9028480215
0.9028479038
0.9028489427
0.9028477465
0.9028484153
0.90284737
0.9028478061
0.9028478009
0.9028473014
0.9028466544
0.9028473987
0.902848163
0.9028471049
0.9028480153
0.9028474697
0.9028476328
0.902846793
0.9028479485
0.9028469241
0.9028480527
0.9028478368
0.9028484803
0.9028480734
0.9028467609
0.9028469496
0.9028482243
0.9028475431
0.9028478641
0.9028478511
0.9028477978
0.9028493719
0.9028470881
0.9028479733
0.9028478357
0.9028471537
0.9028479513
0.9028479925
0.9028471614
0.9028471573
0.9028480981
0.9028478091
0.9028495204
0.9028481171
0.902847581
0.9028469719
0.9028482548
0.9028472936
0.902848381
0.9028469862
0.9028478773
0.9028479408
0.9028479945
0.9028477732
0.902847794
0.9028473524
0.9028476836
0.9028484032
0.9028481895
0.9028472243
0.902848316
0.9028483912
0.9028470481
0.9028471369
0.9028476073
0.9028470887
0.9028470964
0.902847005
0.9028476338
0.902847263
0.9028479068
0.9028470695
0.9028474354
0.9028479343
0.9028472506
0.902846736
0.9028474443
0.9028476493
0.9028473274
0.9028472112
0.9028479386
0.9028483122
0.9028476259
0.902847502
0.9028477114
0.9028481602
0.9028474034
0.9028471298
0.9028470457
0.902847547
0.9028470607
0.9028488038
0.9028480193
0.9028472609
0.902847777
0.9028475677
0.9028486626
0.9028475412
0.9028474098
0.9028472716
0.9028478973
0.9028470621
0.9028472694
0.9028473044
0.9028467832
0.9028470878
0.902847272
0.9028470338
0.9028478277
0.9028483807
0.9028470083
0.9028484684
0.9028474713
0.9028482949
0.9028478864
0.902847715
0.9028470931
0.9028486397
0.9028480311
0.9028478418
0.9028485582
0.9028472329
0.9028478696
0.9028482184
0.9028478847
0.9028485537
0.9028472848
0.9028472196
0.9028503307
0.9028475256
0.9028477398
0.902848097
0.9037102884
0.903541697
0.9036580519
0.9043378878
0.9038569682
0.9034153114
0.9033268185
0.9034780759
0.903446288
0.9034061632
0.9035016607
0.9033215306
0.9032977269
0.9030452973
0.9033312606
0.9034025457
0.9033042009
0.9034300068
0.9047260759
0.9082949223
0.908041367
0.9149571968
0.9087489739
0.9143889325
0.9035873314
0.9105710251
0.9067768588
0.9039612765
0.9081125613
0.9069105394
0.9156160449
0.9075899847
0.9043945352
0.9070664515
0.9029977087
0.9028477713
0.9028478148
0.9028482999
0.9028480937
0.9028482626
0.9028469179
0.9028483615
0.9028472651
0.9028779954
0.9028472866
0.9028484609
0.9028478658
0.9028483653
0.902849402
0.9028484552
0.902848583
0.9028478249
0.9028479494
0.902848275
0.9028478403
0.9028471929
0.9028475687
0.9028480033
0.9028476111
0.9028472958
0.9028481171
0.902847894
0.9035209229
0.9034308755
0.9032214446
0.9034963697
0.903837849
0.9037529185
0.9031828596
0.90380031
0.9037284008
0.9032033441
0.9036039961
0.9035854092
0.9043734462
0.906004144
0.909425106
0.9149436755
0.9118109422
0.9050329775
0.9148000712
0.9157321359
0.9171540976
0.9125787165
0.9988785719
0.9108738067
0.9057925084
0.9028480779
0.9028495697
0.9028487868
0.9028489836
0.9028475553
0.9028485807
0.9028470568
0.9028475113
0.9028471133
0.9028470773
0.9028490438
0.902847556
0.9028486437
0.9028482058
0.9028491451
0.9028479371
0.9028474746
0.9028477549
0.9032559201
0.9028485562
0.9028468473
0.9028489493
0.902847644
0.9028500137
0.9028472331
0.9028494566
0.9036147405
0.9034803592
0.9043177596
0.9036134905
0.9036105421
0.9031234965
0.9035490531
0.9033430615
0.9030675705
0.9033625323
0.9061325926
0.9136806547
0.9139060019
0.9117117272
0.9113880736
0.9032046112
0.9050559654
0.9039907465
0.9098746867
0.9052359198
0.9050309311
0.9043897339
0.9091119469
0.904643501
0.9994281195
0.998168307
0.999400661
0.9990332895
0.9993420287
0.9984627629
0.9176767365
0.9989862899
0.9799265985
0.9992152348
0.904397818
0.9028478231
0.9028472421
0.9028476786
0.9028472518
0.9028481092
0.9028470962
0.9028481764
0.9028475604
0.9028476623
0.9028475296
0.9028479463
0.9028471227
0.9028479429
0.9028473945
0.9028474619
0.9028469028
0.9028477088
0.9028510744
0.9028477229
0.9028474219
0.9028472723
0.9028473144
0.9028480986
0.902847288
0.9028472396
0.9028470167
0.9028480211
0.9028473958
0.9028485011
0.9028477136
0.9028482534
0.9028475119
0.9028475204
0.9028477652
0.9028474919
0.9028493136
0.9028486376
0.9028477105
0.9043108058
0.9034105947
0.9032865183
0.9032845824
0.9041948758
0.9043271505
0.9033966221
0.9032984378
0.9031319986
0.9033094537
0.9057898202
0.9036330613
0.9036286522
0.9037072138
0.9038146263
0.9035237496
0.9036418679
0.9034028244
0.9036693471
0.9035741231
0.9033959866
0.9046115856
0.914667236
0.9107275319
0.9151349617
0.9107368564
0.9038050527
0.9057210797
0.9133917609
0.9089218326
0.9122288235
0.9033618553
0.9035750655
0.9129675045
0.9124090361
0.913278315
0.9143720858
0.9105452511
0.9148506051
0.9028470434
0.9028765571
0.9028473833
0.9028471293
0.9028470896
0.9028482646
0.9029691707
0.902847289
0.9028489049
0.9028489707
0.9028481754
0.902849686
0.9029671606
0.9028476271
0.902848091
0.9028479318
0.9028483255
0.9028478174
0.902848001
0.9028473919
0.9028481732
0.9028488368
0.9028484665
0.9028484283
0.9028483486
0.9036217267
0.9031178069
0.9032071494
0.9031857697
0.9031900963
0.9031286145
0.9032066379
0.9035789883
0.9033310224
0.9032845379
0.9034595442
0.9116575961
0.9091164014
0.9099909422
0.9104890484
0.9055095801
0.9113615303
0.9054964551
0.9075560955
0.9033471791
0.9065417691
0.9032491919
0.9038397508
0.9983151881
0.9074130234
0.9028470033
0.9028481925
0.9028493468
0.9028473324
0.9028487614
0.9028478651
0.9028481021
0.9028485258
0.9028489437
0.9028485345
0.9028518139
0.9028474078
0.9028468765
0.9028469558
0.9028473421
0.9028480396
0.9028474407
0.9028489278
0.9028481194
0.9028486852
0.9028477777
0.9028488777
0.902847146
0.9028490166
0.9028483331
0.9035319769
0.9034615668
0.9031331409
0.9034984711
0.9034938759
0.903125206
0.9035445072
0.9034694231
0.9035009857
0.9032402755
0.9033484433
0.9036310785
0.9144564506
0.9100759109
0.9095911154
0.9064285107
0.9088976352
0.9083159478
0.9039994775
0.9039869373
0.907197661
0.9145960297
0.9099986785
0.9130696466
0.9040944229
0.9144516006
0.9983645994
0.998715599
0.9028479676
0.9028475756
0.9028477755
0.9028474868
0.9028478541
0.902847494
0.902849015
0.9028488966
0.902848135
0.9028470599
0.9028477488
0.9028476093
0.9028472125
0.9028470635
0.902848081
0.9028477612
0.9028474645
0.9028486487
0.9028525746
0.9028480261
0.9028480382
0.9028494592
0.902847282
0.9028473164
0.9028473085
0.9028475763
0.902848082
0.902848242
0.9028478128
0.9028480901
0.9028481819
0.9028471506
0.9028478708
0.903973903
0.9035674299
0.9039114275
0.9035160898
0.9038751288
0.9039016424
0.9034288639
0.9033785556
0.903499927
0.9077948761
0.9035096022
0.904198584
0.9041284988
0.9039756152
0.9039512714
0.9031963182
0.9042634293
0.9042752856
0.9038808699
0.9032367121
0.9072691108
0.9138122049
0.9045504186
0.9036965703
0.9989956006
0.9115922429
0.9122127929
0.9047911191
0.9134005139
0.9075900791
0.9058136969
0.9145627112
0.9045122872
0.9119317912
0.9096525447
0.9044429536
0.9028484951
0.9028481274
0.9028482385
0.9028473765
0.9028486396
0.9028470927
0.9029520749
0.9028485474
0.9028485679
0.9030049433
0.9028471682
0.9028494851
0.9028479667
0.9028497657
0.9035808598
0.9028488061
0.9028483865
0.9028480885
0.9028487915
0.9028472129
0.9028507477
0.9028476736
0.9028479334
0.9028491767
0.9028475437
0.9028491376
0.9028491444
0.9028491966
0.9040254968
0.9032068039
0.9040542195
0.9039623288
0.9033680983
0.9033521111
0.9033773451
0.9042182224
0.9034395828
0.9035319136
0.9989594969
0.9079283771
0.911534633
0.9994624542
0.9034039961
0.9144551678
0.9037194651
0.9064058552
0.9995504371
0.9079390995
0.9040705248
0.9153191642
0.9138289387
0.9028476508
0.9029351392
0.9028486942
0.9028472593
0.9028486939
0.9028476
0.9028483825
0.9028471789
0.9028494463
0.9028482538
0.9028489712
0.9028480824
0.9028489699
0.9028482577
0.9028485676
0.9028480753
0.9028484784
0.9028484312
0.9028479401
0.9028479748
0.9028493019
0.9028492606
0.9028478803
0.9028486959
0.9028482783
0.9028477173
0.9028489923
0.902848012
0.9038473326
0.9037826151
0.903447543
0.9036010669
0.904707307
0.9047310313
0.9036108212
0.9050291074
0.9048572388
0.9030935884
0.9033320726
0.9038940614
0.9028790451
0.9033520665
0.9032727989
0.9077705719
0.9041146809
0.9172553738
0.9047481584
0.911010516
0.9127393946
0.9061758161
0.9049604183
0.9113644299
0.9034477056
0.910107361
0.99948445
0.970778722
0.998840814
0.9993056805
0.9993574409
0.9996059333
0.999561981
0.9203430556
0.9996070748
0.9991484661
0.9995725389
0.9236920351
0.9988866322
0.9028493011
0.9028482654
0.9028482034
0.9028486648
0.9028479468
0.9028474685
0.9028471865
0.9028469209
0.9028475713
0.9028479046
0.9028479243
0.9028471539
0.90284693
0.902847105
0.9028473341
0.9028472026
0.9028479081
0.9028471534
0.902847357
0.9028470165
0.9028481506
0.9028493162
0.9028473148
0.9028484575
0.9028474925
0.9028472669
0.9028479659
0.9028496824
0.9028470572
0.9028477539
0.9028486133
0.9028480455
0.9028479407
0.902847519
0.9028472567
0.9028478819
0.9028473763
0.903204528
0.9033075723
0.9036177719
0.9036796009
0.903190219
0.9033160379
0.9061218168
0.9031858536
0.9039587914
0.9034779282
0.9035894202
0.9036112345
0.9057622936
0.903135859
0.9040760359
0.9033434215
0.9043927348
0.9040644488
0.9996247676
0.9146094749
0.9038737371
0.9097046838
0.9046079779
0.9074344222
0.9145717396
0.9034710372
0.9037700506
0.9110004175
0.9112856802
0.9140754503
0.912346874
0.9053301949
0.9091898991
0.9032320723
0.9159551598
0.9114190899
0.9077777177
0.9028481311
0.9028480032
0.9028478951
0.9028472571
0.9028488368
0.9028486827
0.9028479943
0.9028484682
0.9028632798
0.9028480517
0.9028491287
0.9028478485
0.9028486926
0.9028473669
0.9028477199
0.9028478072
0.9028494028
0.9028478282
0.9028501518
0.9028485066
0.9028476862
0.9028484393
0.9028473846
0.9028490845
0.9038963944
0.9036975137
0.9034055547
0.9039340376
0.9038518748
0.903847431
0.9042104096
0.9034309507
0.9033203304
0.9041517305
0.9039749693
0.903815705
0.9037580624
0.9039467434
0.9037785254
0.9041351711
0.9139146396
0.9168684191
0.9098755538
0.9079629795
0.9062555796
0.9071514977
0.9048547485
0.9150227078
0.9141806034
0.9090192999
0.9045989917
0.9990206431
0.9028470352
0.9028478488
0.9028474858
0.9028472588
0.9028480537
0.9028469307
0.9028480177
0.9030512888
0.9028472346
0.9028483368
0.9028474239
0.9028470029
0.9028483766
0.9028477928
0.9028487176
0.9028473501
0.9028473195
0.9028482394
0.9028484086
0.9028477931
0.9028475188
0.9028478846
0.9028474901
0.9028481556
0.9028484071
0.9028479101
0.9030468002
0.9040255814
0.9030328312
0.9035040061
0.9033365391
0.9031927039
0.9033636361
0.9030669572
0.9035789941
0.9031288702
0.9036606969
0.9035580957
0.9030955582
0.9063843575
0.9041954506
0.9116396216
0.9061330029
0.9101979439
0.9052173429
0.9045954047
0.9041752718
0.9127942446
0.9155859361
0.9065140552
0.9075865385
0.9984026769
0.9991407997
0.9995961252
0.9559519848
0.9993510174
0.9186297654
0.9980475658
0.9981270154
0.9979243812
0.9983654286
0.9978909699
0.9979079742
0.9979462762
0.997918853
0.9979260482
0.9979514346
0.9979383511
0.9979143288
0.998158726
0.9980978077
0.9978917275
0.9978971281
0.9990045158
0.9979667028
0.9981595232
0.9990353892
0.9995423202
0.9982076834
0.9978822009
0.9979142577
0.9990315596
0.9995389201
0.9979243874
0.9979395649
0.9979435956
0.9978847602
0.9978821459
0.9978852264
0.9979123569
0.9978788199
0.9979420402
0.9978814351
0.9979042352
0.9978551689
0.9979446223
0.9979312966
0.9979110031
0.99790065
0.9978709471
0.9979215055
0.9979003166
0.9979373506
0.9979314365
0.9979438863
0.9979172763
0.9978957854
0.9978960719
0.9979417053
0.9979099938
0.9981002828
0.9979803817
0.9981535444
0.9979456059
0.9979434767
0.9979391576
0.9981301383
0.9979523571
0.9981344641
0.9979446057
0.9979320289
0.9981227728
0.9979798464
0.9979338833
0.9979073943
0.9978915253
0.9979471161
0.9979782682
0.9979624593
0.9979587831
0.9979445513
0.9979282578
0.997946178
0.9979453297
0.9979113337
0.9979624069
0.9979434243
0.9979074927
0.9979474691
0.9979617018
0.9978865288
0.9979493938
0.997906241
0.997893705
0.9980762469
0.9979957841
0.9980959283
0.9981211192
0.9979626173
0.9979226909
0.9979305308
0.9981301491
0.9981582922
0.9981860941
0.99795419
0.9979572895
0.9978979302
0.9982299745
0.9979935294
0.9979561117
0.9979430257
0.9981923182
0.9979427183
0.9979197803
0.9978966679
0.997930718
0.997999032
0.9979248785
0.9979351866
0.9978896157
0.9979519833
0.9979277141
0.9979738567
0.9979513963
0.9979423557
0.9979104702
0.9979461531
0.998008141
0.9979387899
0.9981010821
0.9981490844
0.9988553344
0.9979327724
0.9981627424
0.9979505175
0.9981054841
0.9979747323
0.997921616
0.9981347493
0.9978907876
0.9982101012
0.9979411304
0.998284138
0.9983183103
0.9979513523
0.9979875972
0.998139276
0.9981929264
0.9995627769
0.9982183899
0.9980302441
0.9979728043
0.9980987005
0.9979167097
0.9979417421
0.9979421908
0.997968893
0.9979387679
0.9979159388
0.9979502524
0.9979391697
0.9979365756
0.9978696052
0.9979563107
0.9978778296
0.9978368739
0.9979123683
0.9978776888
0.9979362324
0.9979386051
0.9978307132
0.9979149834
0.9980097794
0.9988867976
0.9979175139
0.9979756081
0.9982622857
0.9981894558
0.9979170307
0.9981297303
0.9981124142
0.9979182406
0.9980007185
0.9985659886
0.9992062267
0.9978974407
0.9981430281
0.9988545634
0.9979209851
0.999395701
0.998002696
0.9981851641
0.9979672562
0.9979292739
0.9981080861
0.9979704031
0.9979356819
0.9979370862
0.9979166367
0.9979358391
0.9979376181
0.9979734871
0.9978697156
0.9979487976
0.9979615909
0.9979854395
0.9979535797
0.9979212794
0.9979538476
0.9979262033
0.9980057285
0.9979289045
0.9979953018
0.9982065598
0.9981660231
0.9979755589
0.9979389097
0.9981611643
0.9980405992
0.9979224033
0.9981793075
0.9981750905
0.998000143
0.9979229706
0.99793849
0.9979314292
0.9979071342
0.9978867411
0.9979136081
0.9979743016
0.9979087795
0.9979583234
0.9979806025
0.9979141762
0.9979596866
0.9979669352
0.9979789919
0.9978897443
0.9979340452
0.9979883729
0.9978934789
0.997941378
0.9979005613
0.9979384591
0.9979549944
0.9979831731
0.9979348093
0.9989318093
0.9982079797
0.9979181378
0.9978989333
0.9979699622
0.9979488029
0.9979576334
0.9979529434
0.997931661
0.9981585316
0.9981881529
0.9979289025
0.9980241252
0.9979615498
0.9983863519
0.9981545353
0.9979139791
0.9982081726
0.9979504063
0.9979097444
0.9982181877
0.9979251903
0.9979622396
0.9978441652
0.9979245858
0.9978976016
0.9981908018
0.9983073475
0.998971996
0.9978819212
0.9979124406
0.9978921622
0.9979378415
0.9978756264
0.9979134023
0.9979544212
0.9979593341
0.9979026038
0.9979482633
0.9979503309
0.9979083097
0.9978912957
0.9979498728
0.997943983
0.9979121798
0.9979346546
0.9978492463
0.9979401105
0.9978794946
0.9979247349
0.9978697068
0.9978778248
0.9979097728
0.9979376534
0.9979253151
0.9979343668
0.9978799708
0.9979182866
0.9979358363
0.9978877374
0.9979810732
0.9979021084
0.9979313105
0.9978939036
0.9979684565
0.9979688201
0.9980634102
0.9979934604
0.9979541656
0.998731178
0.9979300304
0.9979598669
0.9979116787
0.9981613295
0.9979397364
0.9979399008
0.9978931963
0.9978935066
0.9978962136
0.9978848379
0.9979561281
0.997897468
0.9979282247
0.997946454
0.9979360881
0.997918
0.9979151966
0.997944288
0.9979600762
0.9979094884
0.9979241867
0.9979569872
0.997966067
0.9979726517
0.9979943298
0.9980364871
0.9979041695
0.9981314864
0.9981035013
0.9979589447
0.9979557844
0.9979542654
0.9982277831
0.9979450266
0.997981384
0.9979883809
0.9981055124
0.9985328306
0.9979139367
0.9979551838
0.9993471873
0.9979539021
0.9979199003
0.9979077684
0.9979343426
0.9979231633
0.997952495
0.997968324
0.9979514465
0.9979602508
0.9979653832
0.9979533417
0.9979246484
0.9979509592
0.9979261281
0.9979582139
0.9979275084
0.9979077685
0.9979357399
0.9979410831
0.9979693123
0.9979440503
0.9979448019
0.9979441721
0.998139725
0.9979115136
0.9981443526
0.9979171174
0.9979706249
0.9981201307
0.9978916996
0.9979076745
0.9979218017
0.9979214013
0.9979281461
0.998197611
0.9978968841
0.9982849169
0.9978939529
0.9981891037
0.9979731316
0.9978940268
0.9979037671
0.9979020565
0.9981962189
0.9982257589
0.9979070497
0.9979516258
0.9981557745
0.9979200457
0.9979114253
0.9979677628
0.9981521524
0.9978976914
0.9978943003
0.9979045533
0.9978952098
0.9979650079
0.9979350747
0.9978946729
0.9979354154
0.9979118758
0.9978536208
0.9979380527
0.9978759104
0.9979569052
0.9978896128
0.9979429048
0.9980125506
0.9979270111
0.9978917118
0.9979289566
0.9979410464
0.9981709652
0.9981888343
0.9979557042
0.9979929476
0.9983382807
0.9979216901
0.9982183603
0.997922793
0.9980993944
0.9979258906
0.9983039656
0.997941015
0.9979454334
0.9978812724
0.9979680457
0.9981488254
0.997969503
0.9979026302
0.9979501511
0.9979467531
0.997948885
0.9979613549
0.9979672105
0.997956687
0.9979261733
0.9979609116
0.9979267036
0.9979464611
0.9978817091
0.9979131519
0.9979447983
0.9979670517
0.9978960107
0.998055234
0.9984711852
0.9994689104
0.9979240328
0.9981112131
0.9986244189
0.9979299502
0.9979725459
0.9981247079
0.9983546289
0.9980186474
0.9979771162
0.9979007195
0.9979758188
0.9995046725
0.9981796108
0.9979490963
0.9979290352
0.9979114683
0.9979712758
0.9979199884
0.9979468952
0.9979840268
0.997921621
0.9978993551
0.9978775298
0.9979272497
0.9979287394
0.997947695
0.9979939756
0.9979488607
0.9979033718
0.9980075912
0.9979963005
0.9980996203
0.997883375
0.9981778695
)


// ************************************************************************* //
