/*--------------------------------*- C++ -*----------------------------------*\
  =========                 |
  \\      /  F ield         | OpenFOAM: The Open Source CFD Toolbox
   \\    /   O peration     | Website:  https://openfoam.org
    \\  /    A nd           | Version:  7
     \\/     M anipulation  |
\*---------------------------------------------------------------------------*/
FoamFile
{
    version     2.0;
    format      ascii;
    class       scalarField;
    location    "2/lagrangian/coalCloud1";
    object      Ywood(s);
}
// * * * * * * * * * * * * * * * * * * * * * * * * * * * * * * * * * * * * * //


2000
(
0.8614796442
0.861471024
0.8614674246
0.8614693506
0.8614697055
0.8614703693
0.8614690096
0.8614757794
0.8614728647
0.8614763519
0.8614735279
0.8614771245
0.8614681956
0.8614746211
0.8614680598
0.8614666892
0.8614512083
0.8614733795
0.8614748633
0.8614696639
0.8614763575
0.8614694197
0.8614705607
0.8614615962
0.8614791266
0.8614715027
0.861470822
0.861476564
0.861474615
0.8614726935
0.8614723875
0.8614720805
0.8614709178
0.8614663294
0.8614729617
0.8614769378
0.8614751886
0.8614682249
0.8614743648
0.8614751432
0.8614774953
0.8614776897
0.8614720721
0.861471851
0.8614751469
0.8614650827
0.8614664348
0.8614710028
0.8614775316
0.8614800915
0.86147672
0.8614730464
0.8614660285
0.8614771998
0.8614749644
0.8614751326
0.8614791654
0.8614768263
0.8614694857
0.8614756063
0.8614783184
0.8614721475
0.8614697005
0.8614726491
0.8614707182
0.8614688246
0.8614745773
0.8614599569
0.8614741465
0.8614674944
0.861474336
0.8614705419
0.8614694328
0.8614712085
0.8614747197
0.8614789355
0.8614761334
0.8614691563
0.8614667284
0.8614663439
0.8614613007
0.8614731161
0.861472977
0.8614596331
0.8614632993
0.8614695612
0.8614554003
0.8614720138
0.8614768839
0.8614609003
0.861472995
0.861471082
0.8614590989
0.8614716188
0.8614740216
0.8614693294
0.8614719193
0.8614715178
0.8614710476
0.8614716893
0.861459838
0.8614753808
0.8614717629
0.8614733591
0.8614742258
0.8614712884
0.8614714049
0.8614660344
0.8614707954
0.8614700723
0.8614637876
0.8614686455
0.8614644815
0.8614730997
0.8614698954
0.8614765632
0.8614778853
0.8614675071
0.8614708277
0.8614694345
0.8614740428
0.861468499
0.8614744934
0.8614700157
0.8614705781
0.8614711901
0.8614705424
0.861473397
0.8614712271
0.8614550341
0.8614657848
0.8614755707
0.8614751654
0.861471682
0.861473432
0.8614630336
0.8614756558
0.8614721838
0.8614819383
0.8614721445
0.8614703872
0.8614702795
0.8614746802
0.861462049
0.8614755682
0.8614786492
0.8614689681
0.861470062
0.8614735758
0.8614728981
0.8614682489
0.8614684407
0.8614697676
0.8614674946
0.8614645394
0.8614784594
0.8614692624
0.8614763076
0.8614720013
0.8614774237
0.8614772919
0.8614708728
0.8614696323
0.8614745748
0.8614700567
0.8614706111
0.8614645292
0.8614764961
0.8614742476
0.8614711835
0.8614710432
0.8614725822
0.8614694373
0.8614729827
0.8614723607
0.8614784316
0.8614706828
0.8614712311
0.8614741246
0.8614761264
0.8614624412
0.8614743022
0.8614730159
0.8614664076
0.8614590141
0.8614648812
0.8614723088
0.8614676714
0.8614709257
0.8614668783
0.8614760305
0.8614722084
0.8614631289
0.8614744389
0.8614644724
0.8614692544
0.8614684338
0.8614787735
0.8614707887
0.8614747981
0.8614722521
0.8614711476
0.8614715343
0.8614650126
0.8614726074
0.8614738804
0.8614715338
0.8614643724
0.8614725859
0.8614733781
0.8614746144
0.8614700252
0.8614489137
0.8614671425
0.8614644953
0.8614714754
0.8614730134
0.8614738104
0.8614769013
0.8614664025
0.861474077
0.8614705889
0.8614816568
0.8614809348
0.8614717858
0.8614743076
0.8614793297
0.8614766047
0.8614700953
0.8614779526
0.8614682353
0.8614763908
0.8614721952
0.8614681423
0.8614702985
0.8614791262
0.8614765988
0.8614688154
0.8614726878
0.8614761041
0.8614783207
0.8614749617
0.8614787973
0.8614769182
0.8614781791
0.8614747213
0.8614786724
0.8614763048
0.8614771
0.8614751678
0.8614794663
0.8614586659
0.8614721589
0.8614787479
0.8614773624
0.8614772193
0.8614653852
0.8614771117
0.861478064
0.8614779792
0.8614784717
0.861476829
0.8614756337
0.8614724775
0.8614779866
0.8614684183
0.8614763247
0.8614769447
0.8614586044
0.8614791067
0.8614727913
0.86147055
0.861474594
0.8614677927
0.8614727639
0.8614619118
0.8614732176
0.8614712734
0.8614681563
0.8614640886
0.861467047
0.8614692048
0.8614658866
0.861470018
0.8614676304
0.8614692212
0.8614561852
0.861475618
0.8614662945
0.8614656038
0.8614692557
0.8614716612
0.8614770314
0.861471316
0.8614679783
0.8614682656
0.8614689856
0.8614711311
0.8614679251
0.8614635128
0.861467534
0.8614567362
0.8614777562
0.8614719689
0.8614736558
0.8614686961
0.8614761317
0.8614726936
0.8614646082
0.8614721744
0.8614657089
0.8614675835
0.8614725067
0.8614749374
0.8614712596
0.8614714719
0.8614676684
0.8614722638
0.8614622529
0.8614783702
0.8614688024
0.8614670682
0.8614714222
0.8614744895
0.861467841
0.8614724256
0.8614639156
0.8614763084
0.8614676687
0.8614771934
0.8614586394
0.8614682381
0.8614694383
0.8614734861
0.8614735784
0.8614755682
0.8614612125
0.861475993
0.8614749536
0.8614736228
0.8614750659
0.8614724453
0.8614679809
0.8614400821
0.8614578944
0.8614612009
0.8614697593
0.8614697834
0.861471173
0.8614684025
0.8614664562
0.8614741381
0.8614714977
0.8614712918
0.8614738499
0.8614685494
0.8614719922
0.8614714592
0.8614685725
0.8614822871
0.8614681477
0.8614700258
0.8614652797
0.8614786736
0.8614781537
0.8614656617
0.8614656665
0.8614681993
0.8614700748
0.8614702355
0.8614700054
0.8614671216
0.8614771546
0.8614661112
0.8614786046
0.8614737517
0.8614772662
0.8614656634
0.8614569577
0.8614648717
0.8614681729
0.8614725002
0.8614712042
0.8614696626
0.8614756993
0.8614716492
0.8614702493
0.8614567428
0.861464959
0.8614703708
0.8614786289
0.8614762122
0.8614591926
0.8614753409
0.8614759772
0.8614667577
0.8614769499
0.8614685699
0.8614701544
0.8614689654
0.8614709173
0.861472231
0.8614759144
0.8614733756
0.8614633228
0.8614663976
0.8614738762
0.8614766949
0.861474893
0.8614699277
0.8614695547
0.8614599756
0.8614763003
0.8614733973
0.8614765548
0.8614743687
0.8614765614
0.8614709351
0.8614632976
0.8614693876
0.8614776199
0.8614749522
0.8614796532
0.8614723613
0.8614767967
0.8614713801
0.8614758612
0.8614798496
0.8614647293
0.8614733038
0.861466792
0.8614702718
0.8614759901
0.8614762514
0.8614781596
0.8614709572
0.8614769472
0.8614640012
0.8614671077
0.8614709762
0.8614744889
0.8614680047
0.8614717829
0.8614728915
0.8614653249
0.8614754575
0.8614769503
0.8614703169
0.8614728938
0.8614694026
0.8614702429
0.8614680293
0.8614767648
0.8614763984
0.8614712937
0.8614671064
0.8614737464
0.8614663162
0.8614752639
0.8614647146
0.8614727682
0.8614741248
0.8614733209
0.861464308
0.8614744367
0.8614692337
0.8614722383
0.861468133
0.8614665456
0.8614696995
0.8614650374
0.8614653681
0.8614585989
0.8614773677
0.8614737915
0.8614683326
0.8614735957
0.8614745644
0.8614704471
0.8614703115
0.8614729125
0.8614675554
0.8614707728
0.8614758766
0.8614634297
0.8614702104
0.8614636365
0.8614743827
0.8614752036
0.8614659721
0.861468105
0.8614675986
0.8614742923
0.8614688685
0.8614736546
0.8614722462
0.8614700407
0.8614750626
0.8614802262
0.8614601729
0.8614656283
0.8614803902
0.8614645642
0.8614637609
0.8614705643
0.8614719671
0.8614711776
0.8614761318
0.8614734133
0.8614712427
0.8614733069
0.8614721306
0.8614676142
0.8614703454
0.8614694405
0.8614728637
0.8614643999
0.8614706928
0.86147335
0.8614657177
0.8614645421
0.8614617359
0.8614615165
0.8614745384
0.8614732839
0.8614654813
0.8614644552
0.8614721873
0.8614567389
0.8614643633
0.8614575701
0.8614731867
0.8614704275
0.8614688885
0.8614696135
0.8614672995
0.8614746708
0.8614682128
0.861474435
0.8614753269
0.8614726222
0.8614728197
0.8614772809
0.8614705024
0.8614746446
0.8614725928
0.8614696804
0.8614753289
0.8614683698
0.8614741644
0.8614697727
0.8614730085
0.861470194
0.861467192
0.8614732729
0.8614708689
0.8614768277
0.8614806726
0.8614755446
0.8614706742
0.8614808135
0.8614720782
0.8614725781
0.8614720479
0.861457339
0.8614692353
0.861458646
0.8614644768
0.8614778136
0.8614672918
0.8614716008
0.8614660159
0.8614777802
0.8614720897
0.8614712103
0.8614674545
0.8614661168
0.8614745703
0.8614707864
0.8610960608
0.8614643722
0.8614742143
0.8614542412
0.8614648702
0.8614677656
0.8614668566
0.8614661359
0.8614779337
0.8614677023
0.861472376
0.8614751787
0.8614683704
0.8614721417
0.8614756553
0.861466908
0.8614644661
0.8614748861
0.8614688878
0.8614739794
0.8614704005
0.8614689688
0.8614676819
0.8614711762
0.8614717044
0.8614775678
0.8614770756
0.8614678744
0.8614682768
0.8614643325
0.8614772334
0.8614807063
0.8614736563
0.8614757008
0.8614682233
0.8614789262
0.8614745935
0.8614714378
0.8614717132
0.8614769516
0.8614738292
0.8614701636
0.861474995
0.8614717757
0.8614784609
0.8614801795
0.8614705892
0.8614754049
0.8614703461
0.8614729779
0.8614741986
0.8614779985
0.8614699344
0.8614707577
0.8614667344
0.8614751096
0.861470376
0.8614719209
0.8614743869
0.8614713246
0.8614726047
0.8614706496
0.8614788766
0.8614774967
0.8614727568
0.8614755739
0.8614713672
0.8614716902
0.8614660929
0.8614756769
0.8614717861
0.8614760073
0.8614765882
0.8614775235
0.861474261
0.8614684408
0.8614780554
0.8614736042
0.8614691129
0.8614773603
0.8614628662
0.8614707829
0.8614653728
0.8614788252
0.8614728309
0.8614750717
0.8614722557
0.8614697432
0.8614150809
0.8614717337
0.8614715216
0.8614717727
0.8614665624
0.8614760681
0.8614741243
0.8614661373
0.8614723649
0.8614683882
0.8614759417
0.8614672136
0.8614682574
0.8614590445
0.8614696521
0.8614637214
0.8614729903
0.8614691237
0.8614691691
0.8614735983
0.8614793358
0.8614727355
0.861465959
0.8614753409
0.8614672683
0.8614721062
0.8614706601
0.8614781064
0.8614678609
0.8614769439
0.8614669369
0.8614688507
0.8614631453
0.861466753
0.8614783913
0.8614767177
0.8614654149
0.8614714553
0.8614686092
0.8614687246
0.8614691967
0.8614552392
0.8614754903
0.8614676403
0.861468861
0.8614749082
0.861467836
0.8614674705
0.86147484
0.8614748768
0.8614665343
0.8614690971
0.8614539222
0.8614663655
0.8614711195
0.8614765201
0.8614651444
0.8614736682
0.8614640257
0.861476394
0.8614684924
0.8614679289
0.8614674527
0.8614694154
0.8614692307
0.8614731468
0.8614702099
0.8614638284
0.8614657235
0.8614742825
0.8614646023
0.8614639347
0.8614758446
0.8614750569
0.8614708858
0.8614754851
0.8614754167
0.8614762269
0.8614706509
0.8614739394
0.8614682304
0.8614756546
0.8614724101
0.8614679867
0.8614740489
0.8614786118
0.8614723319
0.8614705134
0.8614733682
0.8614743986
0.8614679484
0.8614646357
0.8614707213
0.8614718195
0.8614699629
0.8614659833
0.8614726942
0.8614751205
0.861475866
0.861471421
0.8614757326
0.8614602768
0.8614672326
0.8614739576
0.8614693816
0.8614712378
0.8614615286
0.8614714725
0.8614726377
0.8614738632
0.8614683151
0.8614757208
0.8614738823
0.8614735724
0.8614781933
0.8614754927
0.8614738593
0.8614759712
0.8614689317
0.861464028
0.8614761974
0.8614632504
0.8614720918
0.8614647888
0.8614684115
0.8614699308
0.8614754453
0.8614617318
0.861467128
0.861468807
0.8614624545
0.861474206
0.8614685605
0.8614654671
0.8614684266
0.8614624941
0.8614737459
0.8614743239
0.8614467376
0.8614716105
0.8614697117
0.8614665443
0.8538213097
0.8553162459
0.8542845023
0.8482562529
0.8525206684
0.856436933
0.8572216189
0.8558803877
0.8561622573
0.8565180524
0.8556712557
0.8572685076
0.85747958
0.8597179269
0.8571822299
0.8565501298
0.8574221735
0.8563066261
0.8448141065
0.8131683876
0.8154167165
0.7540925856
0.8091422158
0.7591315058
0.8549115959
0.7929857013
0.826629379
0.8515957451
0.8147854217
0.8254440048
0.7482504403
0.8194192193
0.8477539485
0.824061499
0.8601399051
0.8614694318
0.8614690459
0.8614647449
0.8614665734
0.8614650754
0.861476999
0.8614641985
0.8614739204
0.8612014285
0.8614737296
0.8614633168
0.8614685944
0.8614641653
0.8614549719
0.8614633673
0.8614622342
0.8614689568
0.8614678527
0.8614649653
0.8614688197
0.8614745609
0.8614712288
0.861467375
0.8614708525
0.8614736487
0.861466366
0.8614683443
0.8555004541
0.8562989232
0.8581559917
0.8557181724
0.8526902026
0.8534432993
0.8584981327
0.8530230688
0.8536607032
0.8583164928
0.8547638265
0.8549286404
0.8479409492
0.833481205
0.8031468093
0.7542124825
0.7819910931
0.8420927447
0.7554858516
0.7472210367
0.7346122006
0.7751830752
0.009943940874
0.790300873
0.8353578233
0.8614667133
0.8614534854
0.8614604276
0.8614586818
0.861471347
0.861462255
0.8614757673
0.8614717374
0.8614752669
0.8614755854
0.8614581483
0.8614713407
0.8614616966
0.8614655793
0.8614572503
0.861467962
0.8614720632
0.861469577
0.8578502902
0.8614624722
0.861477625
0.8614589861
0.8614705604
0.8614495479
0.8614742046
0.861454488
0.8546685535
0.8558601411
0.8484347333
0.8546796372
0.8547057809
0.8590245182
0.8552510177
0.857077589
0.859520426
0.8569049372
0.832342224
0.7654119555
0.7634137541
0.7828708535
0.7857407586
0.8583052568
0.8418889061
0.8513344282
0.7991602815
0.8402932123
0.8421108906
0.8477965219
0.8059236577
0.8455463155
0.005070986039
0.01624201024
0.005314466494
0.008572026864
0.005834371149
0.01363100793
0.7299778504
0.008988782971
0.177995112
0.00695867938
0.8477248389
0.8614689727
0.8614741242
0.8614702543
0.8614740382
0.8614664356
0.8614754185
0.8614658401
0.8614713017
0.8614703982
0.8614715751
0.8614678801
0.8614751836
0.8614679105
0.8614727731
0.8614721756
0.8614771332
0.8614699861
0.8614401427
0.8614698607
0.8614725302
0.8614738567
0.8614734832
0.8614665294
0.8614737179
0.8614741469
0.8614761232
0.861467217
0.861472762
0.8614629603
0.8614699432
0.8614651566
0.8614717319
0.8614716568
0.8614694865
0.8614719092
0.861455756
0.8614617499
0.8614699706
0.8484963943
0.8564787571
0.8575789692
0.8575961351
0.8495243701
0.848351463
0.8566026556
0.8574732767
0.858949128
0.8573755963
0.8353816596
0.8545060993
0.8545451954
0.8538485732
0.8528961232
0.8554753886
0.8544280087
0.8565476583
0.854184345
0.8550287162
0.8566082908
0.845829316
0.7566637299
0.7915979222
0.7525163066
0.79151524
0.8529810146
0.8359911967
0.7679736382
0.8076094412
0.7782856507
0.8569109396
0.8550203599
0.7717356098
0.776687668
0.7689795874
0.7592808892
0.7932142448
0.755037757
0.8614758862
0.8612141818
0.8614728724
0.8614751247
0.8614754764
0.861465058
0.8603929573
0.861473709
0.8614593797
0.8614587963
0.8614658488
0.8614524538
0.8604107815
0.8614707103
0.8614665967
0.8614680083
0.8614645175
0.8614690229
0.8614673951
0.8614727964
0.861465868
0.861459984
0.8614632676
0.8614636059
0.8614643127
0.8546066049
0.8590749694
0.8582827497
0.8584723281
0.8584339631
0.8589791358
0.8582872859
0.8549855754
0.8571843419
0.8575965294
0.8560447117
0.7833508455
0.8058841586
0.7981294191
0.7937126064
0.8378666083
0.7859761237
0.8379829909
0.8197197218
0.857041077
0.8287139693
0.8579099505
0.852673339
0.01493958451
0.820988373
0.8614762418
0.8614656969
0.8614554614
0.8614733241
0.8614606525
0.8614685999
0.8614664989
0.8614627416
0.8614590359
0.8614626643
0.8614335856
0.8614726549
0.861477366
0.8614766629
0.8614732376
0.8614670531
0.8614723633
0.8614591767
0.8614663456
0.8614613279
0.8614693756
0.8614596211
0.8614749762
0.8614583895
0.8614644501
0.8554024358
0.8560267773
0.858938999
0.8556995388
0.8557402852
0.8590093593
0.855291327
0.8559571134
0.8556772416
0.8579890142
0.8570298667
0.8545236803
0.7585328087
0.7973759836
0.8016747684
0.8297182555
0.8078240048
0.8129819501
0.851257009
0.8513682053
0.8228980366
0.7572951315
0.7980608197
0.770829894
0.8504151074
0.7585758145
0.01450144465
0.0113890565
0.8614676913
0.8614711676
0.8614693951
0.8614719548
0.8614686977
0.8614718908
0.8614584034
0.8614594535
0.861466207
0.8614757404
0.8614696318
0.8614708689
0.8614743865
0.8614757084
0.8614666854
0.8614695219
0.8614721528
0.8614616516
0.86142684
0.8614671722
0.8614670651
0.8614544647
0.8614737709
0.8614734653
0.8614735354
0.8614711608
0.8614666771
0.8614652582
0.8614690641
0.8614666053
0.8614657911
0.8614749362
0.8614685496
0.8514837829
0.855088066
0.8520377664
0.85554331
0.8523596347
0.8521245334
0.8563167604
0.8567628552
0.855686629
0.8176024034
0.8556008365
0.8494914891
0.8501129496
0.8514686004
0.8516844622
0.8583787924
0.8489164916
0.8488113598
0.8523087271
0.8580206111
0.8222644766
0.764245472
0.8463716968
0.8539429511
0.008906222394
0.7839303466
0.7784277978
0.8442373543
0.7678960233
0.8194183822
0.8351699403
0.7575905735
0.8467098165
0.7809194991
0.8011300622
0.847324612
0.8614630136
0.8614662739
0.8614652891
0.861472933
0.8614617328
0.8614754489
0.8605445502
0.8614625502
0.8614623684
0.8600757549
0.8614747794
0.8614542353
0.8614676994
0.8614517474
0.854968981
0.8614602559
0.8614639772
0.8614666192
0.861460386
0.8614743831
0.8614430395
0.8614702982
0.8614679944
0.8614569701
0.8614714501
0.8614573164
0.8614572564
0.8614567934
0.8510262896
0.8582858134
0.8507715995
0.851586414
0.8568555817
0.8569973439
0.8567735887
0.8493173512
0.8562217139
0.8554029965
0.009226361693
0.8164186223
0.7844411857
0.004766532326
0.8565372685
0.758544184
0.8537399377
0.8299191469
0.003986369379
0.8163235445
0.8506270175
0.7508829437
0.7640970902
0.8614705002
0.8606947226
0.8614612484
0.8614739719
0.8614612513
0.8614709505
0.8614640121
0.8614746848
0.8614545794
0.8614651532
0.8614587924
0.861466673
0.8614588035
0.8614651185
0.8614623712
0.8614667361
0.8614631615
0.8614635804
0.8614679352
0.8614676276
0.86145586
0.861456226
0.8614684654
0.8614612333
0.8614649366
0.8614699108
0.8614586051
0.8614672975
0.8526061096
0.8531799734
0.8561511293
0.8547898001
0.8449805346
0.8447701656
0.8547033065
0.8421270622
0.8436510571
0.8592897192
0.8571750299
0.8521917553
0.8611921203
0.8569977392
0.8577006219
0.8178179145
0.8502354758
0.7337141627
0.8446182963
0.7890886423
0.7737583088
0.8319589524
0.8427361423
0.7859504125
0.8561496874
0.7970971095
0.004571490952
0.2591112739
0.01027874792
0.006156678565
0.005697707803
0.003494273478
0.003884007059
0.7063350329
0.003484151503
0.007550731741
0.003790388529
0.6766389205
0.009872468908
0.8614558666
0.8614650502
0.8614656008
0.8614615092
0.8614678754
0.8614721174
0.8614746179
0.8614769722
0.8614712054
0.8614682501
0.8614680749
0.8614749067
0.8614768922
0.8614753406
0.8614733091
0.8614744745
0.8614682186
0.8614749107
0.8614731061
0.8614761245
0.8614660688
0.8614557329
0.8614734795
0.8614633477
0.861471904
0.8614739045
0.8614677067
0.8614524859
0.8614757641
0.8614695864
0.8614619658
0.8614670002
0.8614679295
0.8614716694
0.8614739948
0.8614684515
0.8614729346
0.8583059945
0.8573922791
0.8546416734
0.8540934219
0.8584328753
0.8573172124
0.8324377759
0.8584715847
0.851617781
0.8558816969
0.8548930736
0.8546996415
0.8356257444
0.8589148973
0.8505781487
0.8570743965
0.8477699129
0.8506808943
0.003327265513
0.7571759098
0.8523719752
0.8006677332
0.8458613066
0.8207986251
0.7575105164
0.8559428012
0.8532913856
0.7891781874
0.7866487027
0.7619112195
0.7772388718
0.8394572546
0.8052324386
0.8580617534
0.7452434365
0.7854657305
0.817754551
0.8614662412
0.8614673756
0.8614683343
0.8614739912
0.8614599842
0.8614613502
0.8614674548
0.8614632525
0.8613319144
0.8614669453
0.8614573955
0.8614687475
0.8614612627
0.8614730183
0.861469888
0.8614691133
0.8614549653
0.8614689271
0.8614483232
0.8614629116
0.8614701866
0.8614635091
0.861472861
0.8614577873
0.8521710685
0.8539345857
0.8565234482
0.8518372777
0.8525658327
0.8526052371
0.8493866293
0.8562982562
0.8572791505
0.8499069492
0.8514743284
0.8528865582
0.8533976873
0.8517246134
0.8532162377
0.8500537848
0.7633371616
0.7371453723
0.7991525928
0.816111795
0.8312516725
0.8233073766
0.8436731394
0.7535116859
0.7609788042
0.806745178
0.8459409886
0.00868416566
0.8614759592
0.8614687449
0.8614719633
0.8614739762
0.8614669281
0.8614768854
0.8614672469
0.8596647995
0.8614741908
0.8614644177
0.861472512
0.8614762454
0.8614640647
0.8614692417
0.8614610409
0.8614731667
0.8614734384
0.8614652816
0.8614637806
0.8614692384
0.8614716713
0.8614684273
0.8614719256
0.861466024
0.8614637945
0.8614682014
0.8597046004
0.8510255401
0.8598284666
0.8556504585
0.8571354241
0.8584108412
0.8568951492
0.8595258643
0.8549855238
0.8589768682
0.8542610479
0.8551708351
0.8592722525
0.8301097717
0.8495192736
0.7835102293
0.832338586
0.7962938914
0.8404579375
0.8459727956
0.849698203
0.7732719418
0.7485174212
0.8289597148
0.8194497774
0.01416380306
0.007618711723
0.003581243867
0.3905830998
0.005754666257
0.7215271403
0.01731264827
0.01660815159
0.01840495271
0.01449409156
0.01870121771
0.01855043648
0.0182108046
0.01845397204
0.01839017111
0.01816506381
0.01828107823
0.01849408938
0.01632696705
0.01686714301
0.01869449998
0.01864661107
0.008827169867
0.01802967825
0.01631989851
0.008553409035
0.004058343686
0.01589285131
0.01877897424
0.0184947199
0.008587366441
0.004088493194
0.01840489751
0.01827031534
0.01823457385
0.01875627986
0.0187794619
0.01875214644
0.01851157448
0.01880895398
0.01824836671
0.01878576446
0.01858359148
0.019018673
0.01822547034
0.01834363219
0.01852357845
0.01861538198
0.01887876417
0.01843045198
0.01861833798
0.01828994977
0.01834239151
0.01823199648
0.01846795295
0.01865851781
0.01865597675
0.01825133567
0.01853252869
0.01684519525
0.01790838427
0.01637291352
0.01821674834
0.01823562856
0.01827392711
0.01658046059
0.01815688448
0.01654210289
0.0182256174
0.01833713822
0.01664577236
0.01791313096
0.01832069516
0.01855557884
0.0186962924
0.01820335705
0.0179271249
0.01806730552
0.0180999036
0.01822609972
0.01837057794
0.0182116756
0.01821919745
0.01852064763
0.01806777013
0.01823609352
0.0185547063
0.01820022682
0.01807402233
0.01874059813
0.0181831607
0.01856580536
0.01867696461
0.01705832729
0.01777180733
0.01688380753
0.0166604345
0.01806590513
0.01841994065
0.01835042228
0.01658036489
0.01633081378
0.01608428889
0.01814063141
0.01811314768
0.01863949884
0.01569519155
0.01779180028
0.01812359146
0.01823962745
0.01602909802
0.01824235354
0.0184457499
0.01865069205
0.01834876233
0.01774300759
0.01840054288
0.01830913852
0.01871322566
0.01816019842
0.01837539935
0.01796624308
0.0181654037
0.01824556879
0.01852830457
0.01821189655
0.01766223683
0.01827718739
0.01683810777
0.01641246138
0.01014999304
0.0183305459
0.01629135273
0.01817319596
0.01679907427
0.0179584784
0.01842947222
0.0165395741
0.01870283386
0.01587141263
0.01825643384
0.01521491259
0.01491189936
0.01816579435
0.01784440246
0.01649943432
0.01602370515
0.003876949838
0.01579791504
0.01746624395
0.01797557419
0.01685922653
0.01847297763
0.01825100959
0.01824703119
0.01801025728
0.0182773822
0.01847981314
0.01817554696
0.01827381944
0.01829682174
0.01889066268
0.01812182714
0.01881773553
0.01918089782
0.01851147364
0.01881898409
0.01829986569
0.01827882648
0.01923552684
0.01848828476
0.01764770876
0.009871002085
0.01846584588
0.01795071251
0.01540868184
0.01605447956
0.01847013058
0.01658407821
0.01673762365
0.01845940218
0.0177280536
0.01271568336
0.007038556402
0.01864383958
0.01646616423
0.01015682922
0.01843506596
0.005358447099
0.01771051853
0.01609253516
0.01802477039
0.0183615678
0.01677600194
0.01799686626
0.01830474712
0.01829229447
0.01847362416
0.01830335276
0.01828757821
0.01796952025
0.01888968352
0.01818844747
0.01807500577
0.0178635357
0.01814604349
0.01843245648
0.01814366754
0.01838879558
0.01768362907
0.01836484361
0.01777608451
0.01590281467
0.01626226217
0.01795114931
0.01827612481
0.01630534682
0.01737442294
0.01842249086
0.01614446644
0.0161818597
0.01773315667
0.01841746047
0.01827984684
0.01834245636
0.01855788481
0.01873871482
0.01850047945
0.01796229748
0.01854329593
0.01810397963
0.01790642634
0.01849544207
0.01809189196
0.01802761681
0.01792070753
0.01871208557
0.01831925948
0.0178375243
0.0186789697
0.01825423862
0.01861616867
0.01828012033
0.01813349874
0.0178836325
0.0183124839
0.009471873292
0.01589022422
0.01846031393
0.01863060458
0.01800077644
0.01818840043
0.01811009846
0.01815168549
0.01834040055
0.0163286911
0.0160660329
0.01836486122
0.01752050153
0.01807537052
0.01430855994
0.01636412758
0.01849718977
0.01588851369
0.01817418215
0.01853473982
0.01579970825
0.01839777796
0.01806925419
0.01911624486
0.0184031383
0.01864241265
0.01604254476
0.01500910913
0.009115529568
0.01878145446
0.01851083264
0.01869064538
0.01828559712
0.01883727175
0.01850230475
0.01813858114
0.01809501779
0.01859805695
0.01819318479
0.01817485083
0.01854746142
0.01869832818
0.01817891306
0.01823113873
0.01851314452
0.018313856
0.0190711894
0.0182654771
0.01880297189
0.01840181605
0.01888976211
0.0188177778
0.01853448833
0.01828726473
0.01839667121
0.01831640782
0.01879874928
0.01845899439
0.01830337806
0.01872988112
0.01790225208
0.0186024497
0.01834350893
0.01867520334
0.01801412782
0.01801090364
0.01717215261
0.0177924127
0.01814084819
0.01125091424
0.01835486017
0.01809029345
0.0185175878
0.01630388182
0.01826879447
0.01826733723
0.01868147589
0.0186787238
0.01865472085
0.01875559084
0.01812344572
0.01864359706
0.01837087158
0.01820922826
0.01830114446
0.01846153595
0.01848639408
0.01822843505
0.0180884369
0.01853701046
0.01840667676
0.01811582807
0.01803531594
0.01797692799
0.01778470332
0.01741088558
0.01858417393
0.0165685068
0.01681665667
0.01809847091
0.01812649336
0.0181399627
0.01571462329
0.01822188503
0.0178994964
0.01783745391
0.01679882361
0.01300970268
0.01849756561
0.018131819
0.005788629021
0.01814318455
0.0184446852
0.01855226166
0.01831662297
0.01841575194
0.01815566164
0.01801530241
0.01816495835
0.01808688868
0.01804137911
0.0181481531
0.01840258298
0.01816927993
0.01838946228
0.01810495028
0.01837722308
0.01855226076
0.01830423212
0.01825685326
0.01800653887
0.01823054255
0.01822387737
0.01822946258
0.01649545291
0.01851905253
0.01645441906
0.01846936244
0.01799489971
0.01666920048
0.01869474691
0.01855309391
0.0184278254
0.01843137552
0.01837156869
0.01598216583
0.01864877537
0.01520800549
0.0186747663
0.01605760197
0.01797267246
0.01867411137
0.01858774181
0.01860291012
0.01599450968
0.01573257228
0.01855863437
0.01816336888
0.01635313928
0.01844339658
0.0185198353
0.01802027839
0.01638525668
0.01864161666
0.01867168591
0.01858077084
0.0186636217
0.01804470716
0.01831013116
0.01866838265
0.0183071102
0.01851584066
0.01903240007
0.01828372419
0.01883475334
0.01811655503
0.018713251
0.01824069987
0.01762313581
0.01838163238
0.0186946391
0.01836438114
0.01825717889
0.01621843941
0.01605999084
0.01812720498
0.0177969596
0.01473481792
0.01842881463
0.01579817731
0.01841903539
0.01685307352
0.01839156831
0.01503909715
0.01825745711
0.01821827793
0.01878720774
0.0180177698
0.0164147578
0.01800484803
0.0185978235
0.01817644562
0.01820657567
0.01818767175
0.0180770985
0.01802517597
0.01811849048
0.01838906139
0.01808102964
0.01838435953
0.01820916555
0.01878333494
0.01850452475
0.01822391
0.0180265841
0.01865651956
0.01724465279
0.0135563256
0.004709283849
0.01840804146
0.01674827393
0.01219756978
0.01835557114
0.01797786606
0.01662861291
0.0145898548
0.01756907366
0.01793734014
0.0186147654
0.01794884413
0.004392174177
0.01614177776
0.01818579864
0.01836368443
0.0185194536
0.01798912801
0.01844390431
0.01820531604
0.01787606182
0.01842942802
0.01862686458
0.01882039419
0.01837951642
0.01836630766
0.01819822439
0.01778784414
0.01818788723
0.01859124716
0.01766711149
0.01776722859
0.01685107019
0.01876856315
0.01615721756
)


// ************************************************************************* //
