/*--------------------------------*- C++ -*----------------------------------*\
| =========                 |                                                 |
| \\      /  F ield         | OpenFOAM: The Open Source CFD Toolbox           |
|  \\    /   O peration     | Version:  2.1.0                                 |
|   \\  /    A nd           | Web:      www.OpenFOAM.org                      |
|    \\/     M anipulation  |                                                 |
\*---------------------------------------------------------------------------*/
FoamFile
{
    version     2.0;
    format      ascii;
    class       dictionary;
    location    "constant";
    object      reactionProperties;
}
// * * * * * * * * * * * * * * * * * * * * * * * * * * * * * * * * * * * * * //

reaction0
{

  Ea  152700.00;
  A 4.38000E+009;
  dh 80000;
};

reaction1
{

  Ea  148000.00;
  A 1.08000E+010;
  dh 80000;
};

reaction2
{

  Ea  111700.00;
  A 3.75000E+006;
  dh 80000;
};

reaction3
{

  Ea  161000.00;
  A 1.38000E+010;
  dh -300000;
};

reaction4
{

  Ea  108000.00;
  A 1.00000E+005;
  dh -42000;
};

reaction5
{

  Ea  141000.00;
  A 3.30000E+011;
  dh -42000;
};



// ************************************************************************* //
