/*--------------------------------*- C++ -*----------------------------------*\
| =========                 |                                                 |
| \\      /  F ield         | OpenFOAM: The Open Source CFD Toolbox           |
|  \\    /   O peration     | Version:  2.1.0                                 |
|   \\  /    A nd           | Web:      www.OpenFOAM.org                      |
|    \\/     M anipulation  |                                                 |
\*---------------------------------------------------------------------------*/
FoamFile
{
    version     2.0;
    format      ascii;
    class       dictionary;
    location    "constant";
    object      reactionProperties;
}
// * * * * * * * * * * * * * * * * * * * * * * * * * * * * * * * * * * * * * //

reaction0
{
  Ea Ea [1 2 -2 0 -1 0 0] 47000.00;
  A  A [0 0 -1 0 0 0 0] 1.50000E+014;
  dh dh [0 2 -2 0 0 0 0] 80;
};

reaction1
{
  Ea Ea [1 2 -2 0 -1 0 0] 47000.00;
  A  A [0 0 -1 0 0 0 0] 1.50000E+014;
  dh dh [0 2 -2 0 0 0 0] 80;
};

reaction2
{
  Ea Ea [1 2 -2 0 -1 0 0] 47000.00;
  A  A [0 0 -1 0 0 0 0] 1.50000E+014;
  dh dh [0 2 -2 0 0 0 0] 80;
};

reaction3
{
  Ea Ea [1 2 -2 0 -1 0 0] 47000.00;
  A  A [0 0 -1 0 0 0 0] 1.50000E+014;
  dh dh [0 2 -2 0 0 0 0] 80;
};

reaction4
{
  Ea Ea [1 2 -2 0 -1 0 0] 47000.00;
  A  A [0 0 -1 0 0 0 0] 1.50000E+014;
  dh dh [0 2 -2 0 0 0 0] 80;
};

reaction5
{
  Ea Ea [1 2 -2 0 -1 0 0] 47000.00;
  A  A [0 0 -1 0 0 0 0] 1.50000E+014;
  dh dh [0 2 -2 0 0 0 0] 80;
};



// ************************************************************************* //
