/*--------------------------------*- C++ -*----------------------------------*\
  =========                 |
  \\      /  F ield         | OpenFOAM: The Open Source CFD Toolbox
   \\    /   O peration     | Website:  https://openfoam.org
    \\  /    A nd           | Version:  7
     \\/     M anipulation  |
\*---------------------------------------------------------------------------*/
FoamFile
{
    version     2.0;
    format      ascii;
    class       dictionary;
    location    "constant";
    object      particleInfoDict;
}
// * * * * * * * * * * * * * * * * * * * * * * * * * * * * * * * * * * * * * //


VERBOSITY 1;
SAVE_EVERY 1000;
TIME_DT 1.0e-04;
TIME_TOTAL 100;
MOISTURE_FRACTION_DB 0.666667;
PARTICLE_RADIUS 4.75e-03;
DRYING_SHRINKAGE_VOLUME 0.127;
T_REACTOR 1050.0;
T_RADIATION 1276.0;
MASS_FRAC_O2 0.23;
DENSITY_INITIAL 844.0;
FINE_PARTICLE_MESH 50;
FINE_PARTICLE_MESH_DOUBLE 50.0;
K_P_WET 1;
K_P_DRY 1;
K_P_CHAR 1;


// ************************************************************************* //
